api/pglib_opf_case2736sp_mp__api.m
%%%%%%%%%%%%%%%%%%%%%%%%%%%%%%%%%%%%%%%%%%%%%%%%%%%%%%%%%%%%%%%%%%%%%%%%%%%
%%%%                                                                  %%%%%
%%%%    IEEE PES Power Grid Library - Optimal Power Flow - v17.07     %%%%%
%%%%          (https://github.com/power-grid-lib/pglib-opf)           %%%%%
%%%%             Benchmark Group - Active Power Increase              %%%%%
%%%%                         27 - June - 2017                         %%%%%
%%%%                                                                  %%%%%
%%%%%%%%%%%%%%%%%%%%%%%%%%%%%%%%%%%%%%%%%%%%%%%%%%%%%%%%%%%%%%%%%%%%%%%%%%%
function mpc = pglib_opf_case2736sp_mp__api
mpc.version = '2';
mpc.baseMVA = 100.0;

%% area data
%	area	refbus
mpc.areas = [
	1	 18;
];

%% bus data
%	bus_i	type	Pd	Qd	Gs	Bs	area	Vm	Va	baseKV	zone	Vmax	Vmin
mpc.bus = [
	1	 1	 0.00	 0.00	 0.0	 0.0	 1	    1.06734	   -1.45726	 220.0	 1	    1.11000	    0.95000;
	2	 1	 0.00	 0.00	 0.0	 0.0	 1	    1.07702	    0.22992	 220.0	 1	    1.11000	    0.95000;
	3	 1	 0.00	 0.00	 0.0	 0.0	 1	    1.06975	  -15.88108	 220.0	 1	    1.11000	    0.95000;
	4	 1	 0.00	 0.00	 0.0	 0.0	 1	    1.06990	   -3.02122	 220.0	 1	    1.11000	    0.95000;
	5	 1	 0.00	 0.00	 0.0	 0.0	 1	    1.06991	   -3.01545	 220.0	 1	    1.11000	    0.95000;
	6	 1	 0.00	 0.00	 0.0	 0.0	 1	    1.07410	   -7.38812	 220.0	 1	    1.11000	    0.95000;
	7	 1	 0.00	 0.00	 0.0	 0.0	 1	    1.07419	   -7.38534	 220.0	 1	    1.11000	    0.95000;
	8	 1	 0.00	 0.00	 0.0	 0.0	 1	    1.03509	   -4.90281	 400.0	 1	    1.05000	    0.95000;
	9	 1	 0.00	 0.00	 0.0	 0.0	 1	    1.03510	   -4.89708	 400.0	 1	    1.05000	    0.95000;
	10	 1	 0.00	 0.00	 0.0	 0.0	 1	    1.06841	   -7.80295	 220.0	 1	    1.11000	    0.95000;
	11	 1	 0.00	 0.00	 0.0	 0.0	 1	    1.06832	   -7.81050	 220.0	 1	    1.11000	    0.95000;
	12	 1	 0.00	 0.00	 0.0	 0.0	 1	    1.06826	   -7.81428	 220.0	 1	    1.11000	    0.95000;
	13	 1	 0.00	 0.00	 0.0	 0.0	 1	    1.06823	   -7.82086	 220.0	 1	    1.11000	    0.95000;
	14	 1	 0.00	 0.00	 0.0	 0.0	 1	    1.02803	   -4.42269	 400.0	 1	    1.05000	    0.95000;
	15	 1	 0.00	 0.00	 0.0	 0.0	 1	    1.03666	   -7.21458	 400.0	 1	    1.05000	    0.95000;
	16	 1	 0.00	 0.00	 0.0	 0.0	 1	    1.03666	   -7.21458	 400.0	 1	    1.05000	    0.95000;
	17	 2	 0.00	 0.00	 0.0	 0.0	 1	    1.08246	  -12.14458	 220.0	 1	    1.11000	    0.95000;
	18	 1	 0.00	 0.00	 0.0	 0.0	 1	    1.08254	  -12.14911	 220.0	 1	    1.11000	    0.95000;
	19	 1	 0.00	 0.00	 0.0	 0.0	 1	    1.07185	   -2.37363	 220.0	 1	    1.11000	    0.95000;
	20	 1	 0.00	 0.00	 0.0	 0.0	 1	    1.07192	   -2.36133	 220.0	 1	    1.11000	    0.95000;
	21	 1	 0.00	 0.00	 0.0	 0.0	 1	    1.07484	  -10.31528	 220.0	 1	    1.11000	    0.95000;
	22	 1	 0.00	 0.00	 0.0	 0.0	 1	    1.07484	  -10.31528	 220.0	 1	    1.11000	    0.95000;
	23	 1	 0.00	 0.00	 0.0	 0.0	 1	    1.06728	   -7.52435	 220.0	 1	    1.11000	    0.95000;
	24	 1	 0.00	 0.00	 0.0	 0.0	 1	    1.07350	   -1.93544	 220.0	 1	    1.11000	    0.95000;
	25	 1	 0.00	 0.00	 0.0	 0.0	 1	    1.03403	   -7.10228	 400.0	 1	    1.05000	    0.95000;
	26	 2	 91.79	 72.05	 0.0	 0.0	 1	    1.07688	   -0.92380	 220.0	 1	    1.11000	    0.95000;
	27	 2	 126.95	 122.06	 0.0	 0.0	 1	    1.08167	    0.79065	 220.0	 1	    1.11000	    0.95000;
	28	 3	 73.30	 74.00	 0.0	 0.0	 1	    1.03581	    0.00000	 400.0	 1	    1.05000	    0.95000;
	29	 2	 73.30	 74.00	 0.0	 0.0	 1	    1.03577	   -0.00961	 400.0	 1	    1.05000	    0.95000;
	30	 1	 0.00	 0.00	 0.0	 0.0	 1	    1.07065	   -7.99773	 220.0	 1	    1.11000	    0.95000;
	31	 1	 0.00	 0.00	 0.0	 0.0	 1	    1.03156	   -1.34040	 400.0	 1	    1.05000	    0.95000;
	32	 1	 0.00	 0.00	 0.0	 0.0	 1	    1.06575	   -8.09559	 220.0	 1	    1.11000	    0.95000;
	33	 1	 0.00	 0.00	 0.0	 0.0	 1	    1.08410	   -2.69958	 220.0	 1	    1.11000	    0.95000;
	34	 1	 0.00	 0.00	 0.0	 0.0	 1	    1.08182	   -4.37119	 220.0	 2	    1.11000	    0.95000;
	35	 1	 0.00	 0.00	 0.0	 0.0	 1	    1.08152	   -5.22872	 220.0	 2	    1.11000	    0.95000;
	36	 1	 0.00	 0.00	 0.0	 0.0	 1	    1.09360	   -3.41176	 220.0	 2	    1.11000	    0.95000;
	37	 1	 0.00	 0.00	 0.0	 0.0	 1	    1.09357	   -3.41701	 220.0	 2	    1.11000	    0.95000;
	38	 1	 0.00	 0.00	 0.0	 0.0	 1	    1.06169	   -5.74870	 220.0	 2	    1.11000	    0.95000;
	39	 1	 0.00	 0.00	 0.0	 0.0	 1	    1.10937	   -3.09883	 220.0	 2	    1.11000	    0.95000;
	40	 1	 0.00	 0.00	 0.0	 0.0	 1	    1.10926	   -3.09913	 220.0	 2	    1.11000	    0.95000;
	41	 1	 0.00	 0.00	 0.0	 0.0	 1	    1.02213	   -2.04463	 400.0	 2	    1.05000	    0.95000;
	42	 2	 25.00	 0.00	 0.0	 0.0	 1	    1.10506	   -2.21448	 220.0	 2	    1.11000	    0.95000;
	43	 2	 26.00	 0.00	 0.0	 0.0	 1	    1.10512	   -2.19468	 220.0	 2	    1.11000	    0.95000;
	44	 2	 25.00	 0.00	 0.0	 0.0	 1	    1.03901	   -1.60586	 400.0	 2	    1.05000	    0.95000;
	45	 1	 0.00	 0.00	 0.0	 0.0	 1	    1.03896	   -1.61091	 400.0	 2	    1.05000	    0.95000;
	46	 1	 0.00	 0.00	 0.0	 0.0	 1	    1.10466	   -3.82160	 220.0	 2	    1.11000	    0.95000;
	47	 1	 0.00	 0.00	 0.0	 0.0	 1	    1.04968	   -7.22505	 400.0	 2	    1.05000	    0.95000;
	48	 1	 0.00	 0.00	 0.0	 0.0	 1	    1.04967	   -7.23386	 400.0	 2	    1.05000	    0.95000;
	49	 1	 0.00	 0.00	 0.0	 0.0	 1	    1.04272	   -2.66564	 400.0	 2	    1.05000	    0.95000;
	50	 1	 0.00	 0.00	 0.0	 0.0	 1	    1.07143	   -4.09014	 220.0	 2	    1.11000	    0.95000;
	51	 1	 0.00	 0.00	 0.0	 0.0	 1	    1.07139	   -4.08227	 220.0	 2	    1.11000	    0.95000;
	52	 1	 0.00	 0.00	 0.0	 0.0	 1	    1.04077	   -1.98288	 400.0	 2	    1.05000	    0.95000;
	53	 1	 0.00	 0.00	 0.0	 0.0	 1	    1.04077	   -1.98180	 400.0	 2	    1.05000	    0.95000;
	54	 2	 13.00	 0.00	 0.0	 0.0	 1	    1.10236	   -1.81917	 220.0	 2	    1.11000	    0.95000;
	55	 2	 13.00	 0.00	 0.0	 0.0	 1	    1.10233	   -1.84100	 220.0	 2	    1.11000	    0.95000;
	56	 2	 13.00	 0.00	 0.0	 0.0	 1	    1.04349	   -0.84045	 400.0	 2	    1.05000	    0.95000;
	57	 2	 26.00	 0.00	 0.0	 0.0	 1	    1.04348	   -0.83592	 400.0	 2	    1.05000	    0.95000;
	58	 2	 133.24	 40.00	 0.0	 0.0	 1	    1.10004	   -3.62586	 220.0	 2	    1.11000	    0.95000;
	59	 1	 0.00	 0.00	 0.0	 0.0	 1	    1.10000	   -3.62192	 220.0	 2	    1.11000	    0.95000;
	60	 1	 0.00	 0.00	 0.0	 0.0	 1	    1.10129	   -3.90012	 220.0	 2	    1.11000	    0.95000;
	61	 1	 0.00	 0.00	 0.0	 0.0	 1	    1.10108	   -3.73407	 220.0	 2	    1.11000	    0.95000;
	62	 1	 0.00	 0.00	 0.0	 0.0	 1	    1.10107	   -3.73514	 220.0	 2	    1.11000	    0.95000;
	63	 1	 0.00	 0.00	 0.0	 0.0	 1	    1.05000	   -3.52354	 400.0	 2	    1.05000	    0.95000;
	64	 1	 0.00	 0.00	 0.0	 0.0	 1	    1.04999	   -3.54267	 400.0	 2	    1.05000	    0.95000;
	65	 1	 0.00	 0.00	 0.0	 0.0	 1	    1.08431	   -4.75527	 220.0	 2	    1.11000	    0.95000;
	66	 1	 0.00	 0.00	 0.0	 0.0	 1	    1.08647	   -4.47216	 220.0	 2	    1.11000	    0.95000;
	67	 1	 0.00	 0.00	 0.0	 0.0	 1	    1.07170	   -2.61162	 220.0	 2	    1.11000	    0.95000;
	68	 1	 0.00	 0.00	 0.0	 0.0	 1	    1.08948	   -1.99986	 220.0	 3	    1.11000	    0.95000;
	69	 1	 10.33	 0.00	 0.0	 0.0	 1	    1.10305	   -0.57151	 220.0	 3	    1.11000	    0.95000;
	70	 1	 12.02	 3.71	 0.0	 0.0	 1	    1.10286	   -0.57561	 220.0	 3	    1.11000	    0.95000;
	71	 1	 0.00	 0.00	 0.0	 0.0	 1	    1.10842	    3.55650	 220.0	 3	    1.11000	    0.95000;
	72	 1	 0.00	 0.00	 0.0	 0.0	 1	    1.10844	    3.55685	 220.0	 3	    1.11000	    0.95000;
	73	 1	 0.00	 0.00	 0.0	 0.0	 1	    1.10847	    1.91778	 220.0	 3	    1.11000	    0.95000;
	74	 1	 0.00	 0.00	 0.0	 0.0	 1	    1.10847	    1.90380	 220.0	 3	    1.11000	    0.95000;
	75	 1	 0.00	 0.00	 0.0	 0.0	 1	    1.10699	    4.14607	 220.0	 3	    1.11000	    0.95000;
	76	 1	 0.00	 0.00	 0.0	 0.0	 1	    1.10692	    4.13919	 220.0	 3	    1.11000	    0.95000;
	77	 2	 40.39	 70.00	 0.0	 0.0	 1	    1.11000	    3.57785	 220.0	 3	    1.11000	    0.95000;
	78	 2	 27.97	 42.00	 0.0	 0.0	 1	    1.11000	    4.18849	 220.0	 3	    1.11000	    0.95000;
	79	 1	 7.38	 0.82	 0.0	 0.0	 1	    1.09850	    3.88383	 220.0	 3	    1.11000	    0.95000;
	80	 1	 0.00	 0.00	 0.0	 0.0	 1	    1.09854	    3.88006	 220.0	 3	    1.11000	    0.95000;
	81	 2	 26.93	 57.00	 0.0	 0.0	 1	    1.02463	   -2.88302	 400.0	 3	    1.05000	    0.95000;
	82	 1	 0.00	 0.00	 0.0	 0.0	 1	    1.09435	   -4.20968	 220.0	 3	    1.11000	    0.95000;
	83	 1	 0.00	 0.00	 0.0	 0.0	 1	    1.10382	    2.17284	 220.0	 3	    1.11000	    0.95000;
	84	 1	 0.00	 0.00	 0.0	 0.0	 1	    1.10389	    2.17928	 220.0	 3	    1.11000	    0.95000;
	85	 1	 44.86	 -6.40	 0.0	 0.0	 1	    1.09257	   -1.68221	 220.0	 3	    1.11000	    0.95000;
	86	 1	 0.00	 0.00	 0.0	 0.0	 1	    1.09256	   -1.68624	 220.0	 3	    1.11000	    0.95000;
	87	 1	 0.00	 0.00	 0.0	 0.0	 1	    1.10143	    0.94409	 220.0	 3	    1.11000	    0.95000;
	88	 1	 0.00	 0.00	 0.0	 0.0	 1	    1.10142	    0.95524	 220.0	 3	    1.11000	    0.95000;
	89	 1	 0.00	 0.00	 0.0	 0.0	 1	    1.09345	   -1.27987	 220.0	 3	    1.11000	    0.95000;
	90	 1	 0.00	 0.00	 0.0	 0.0	 1	    1.09344	   -1.28989	 220.0	 3	    1.11000	    0.95000;
	91	 1	 0.00	 0.00	 0.0	 0.0	 1	    1.03734	   -0.77267	 400.0	 3	    1.05000	    0.95000;
	92	 1	 0.00	 0.00	 0.0	 0.0	 1	    1.03733	   -0.77332	 400.0	 3	    1.05000	    0.95000;
	93	 1	 0.00	 0.00	 0.0	 0.0	 1	    1.10185	    0.97335	 220.0	 3	    1.11000	    0.95000;
	94	 1	 0.00	 0.00	 0.0	 0.0	 1	    1.10183	    0.97983	 220.0	 3	    1.11000	    0.95000;
	95	 1	 0.00	 0.00	 0.0	 0.0	 1	    1.09822	   -0.36783	 220.0	 3	    1.11000	    0.95000;
	96	 1	 0.00	 0.00	 0.0	 0.0	 1	    1.09821	   -0.38683	 220.0	 3	    1.11000	    0.95000;
	97	 2	 18.68	 3.70	 0.0	 0.0	 1	    1.11000	    3.31663	 220.0	 3	    1.11000	    0.95000;
	98	 1	 25.92	 6.13	 0.0	 0.0	 1	    1.10991	    3.29060	 220.0	 3	    1.11000	    0.95000;
	99	 1	 0.00	 0.00	 0.0	 0.0	 1	    1.10309	   -0.54922	 220.0	 3	    1.11000	    0.95000;
	100	 1	 0.00	 0.00	 0.0	 0.0	 1	    1.10310	   -0.54763	 220.0	 3	    1.11000	    0.95000;
	101	 1	 0.00	 0.00	 0.0	 0.0	 1	    1.10222	    3.77738	 220.0	 3	    1.11000	    0.95000;
	102	 1	 0.00	 0.00	 0.0	 0.0	 1	    1.10221	    3.77543	 220.0	 3	    1.11000	    0.95000;
	103	 2	 20.94	 40.00	 0.0	 0.0	 1	    1.10339	    2.60267	 220.0	 3	    1.11000	    0.95000;
	104	 2	 0.00	 0.00	 0.0	 0.0	 1	    1.10332	    2.57585	 220.0	 3	    1.11000	    0.95000;
	105	 2	 10.47	 18.00	 0.0	 0.0	 1	    1.10494	    0.93734	 220.0	 3	    1.11000	    0.95000;
	106	 2	 0.00	 0.00	 0.0	 0.0	 1	    1.10479	    0.92159	 220.0	 3	    1.11000	    0.95000;
	107	 1	 0.00	 13.89	 0.0	 0.0	 1	    1.10054	    0.60262	 220.0	 3	    1.11000	    0.95000;
	108	 1	 110.37	 8.10	 0.0	 0.0	 1	    1.10060	    0.60648	 220.0	 3	    1.11000	    0.95000;
	109	 1	 0.00	 0.00	 0.0	 0.0	 1	    1.10300	    3.30381	 220.0	 3	    1.11000	    0.95000;
	110	 1	 0.00	 0.00	 0.0	 0.0	 1	    1.09067	    4.84911	 220.0	 3	    1.11000	    0.95000;
	111	 1	 0.00	 0.00	 0.0	 0.0	 1	    1.09072	    4.84447	 220.0	 3	    1.11000	    0.95000;
	112	 1	 0.00	 0.00	 0.0	 0.0	 1	    1.10112	    3.60752	 220.0	 3	    1.11000	    0.95000;
	113	 1	 0.00	 0.00	 0.0	 0.0	 1	    1.10119	    3.60749	 220.0	 3	    1.11000	    0.95000;
	114	 1	 0.00	 0.00	 0.0	 0.0	 1	    1.03242	   -2.06237	 400.0	 3	    1.05000	    0.95000;
	115	 2	 0.00	 0.00	 0.0	 0.0	 1	    1.11000	    3.75215	 220.0	 3	    1.11000	    0.95000;
	116	 2	 11.97	 15.00	 0.0	 0.0	 1	    1.10999	    3.75366	 220.0	 3	    1.11000	    0.95000;
	117	 2	 8.23	 10.00	 0.0	 0.0	 1	    1.10994	    4.92201	 220.0	 3	    1.11000	    0.95000;
	118	 1	 0.00	 0.00	 0.0	 0.0	 1	    1.11000	    4.90361	 220.0	 3	    1.11000	    0.95000;
	119	 1	 0.00	 0.00	 0.0	 0.0	 1	    1.04976	   -2.18150	 400.0	 3	    1.05000	    0.95000;
	120	 1	 0.00	 0.00	 0.0	 0.0	 1	    1.04978	   -2.17671	 400.0	 3	    1.05000	    0.95000;
	121	 1	 0.00	 0.00	 0.0	 0.0	 1	    1.04485	   -1.70490	 400.0	 3	    1.05000	    0.95000;
	122	 1	 0.00	 0.00	 0.0	 0.0	 1	    1.04487	   -1.70212	 400.0	 3	    1.05000	    0.95000;
	123	 1	 0.00	 0.00	 0.0	 0.0	 1	    1.10338	    3.61958	 220.0	 3	    1.11000	    0.95000;
	124	 2	 16.46	 17.50	 0.0	 0.0	 1	    1.10984	    4.62025	 220.0	 3	    1.11000	    0.95000;
	125	 2	 61.86	 61.20	 0.0	 0.0	 1	    1.11000	    4.70460	 220.0	 3	    1.11000	    0.95000;
	126	 2	 20.94	 33.00	 0.0	 0.0	 1	    1.02085	   -1.71592	 400.0	 3	    1.05000	    0.95000;
	127	 1	 0.00	 0.00	 0.0	 0.0	 1	    1.02094	   -1.70426	 400.0	 3	    1.05000	    0.95000;
	128	 1	 0.00	 0.00	 0.0	 0.0	 1	    1.09214	   -1.76572	 220.0	 3	    1.11000	    0.95000;
	129	 1	 0.00	 0.00	 0.0	 0.0	 1	    1.09215	   -1.75722	 220.0	 3	    1.11000	    0.95000;
	130	 1	 0.00	 0.00	 0.0	 0.0	 1	    1.09351	   -1.38390	 220.0	 3	    1.11000	    0.95000;
	131	 2	 2.24	 9.00	 0.0	 0.0	 1	    1.11000	    4.96799	 220.0	 3	    1.11000	    0.95000;
	132	 2	 0.00	 0.00	 0.0	 0.0	 1	    1.10695	    4.13896	 220.0	 3	    1.11000	    0.95000;
	133	 2	 16.78	 8.30	 0.0	 0.0	 1	    1.10983	   -1.27153	 220.0	 4	    1.11000	    0.95000;
	134	 2	 15.46	 7.70	 0.0	 0.0	 1	    1.11000	   -1.26110	 220.0	 4	    1.11000	    0.95000;
	135	 1	 0.00	 0.00	 0.0	 0.0	 1	    1.08619	   -8.86673	 220.0	 4	    1.11000	    0.95000;
	136	 1	 0.00	 0.00	 0.0	 0.0	 1	    1.09216	   -7.64181	 220.0	 4	    1.11000	    0.95000;
	137	 1	 0.00	 0.00	 0.0	 0.0	 1	    1.01960	   -7.31943	 400.0	 4	    1.05000	    0.95000;
	138	 1	 0.00	 0.00	 0.0	 0.0	 1	    1.01959	   -7.32305	 400.0	 4	    1.05000	    0.95000;
	139	 1	 0.00	 0.00	 0.0	 0.0	 1	    1.10099	  -10.41817	 220.0	 4	    1.11000	    0.95000;
	140	 1	 0.00	 0.00	 0.0	 0.0	 1	    1.09657	   -4.06992	 220.0	 4	    1.11000	    0.95000;
	141	 1	 0.00	 0.00	 0.0	 0.0	 1	    1.09657	   -4.06992	 220.0	 4	    1.11000	    0.95000;
	142	 1	 0.00	 0.00	 0.0	 0.0	 1	    1.11000	   -4.83063	 220.0	 4	    1.11000	    0.95000;
	143	 1	 0.00	 0.00	 0.0	 0.0	 1	    1.08315	  -10.67240	 220.0	 4	    1.11000	    0.95000;
	144	 1	 0.00	 0.00	 0.0	 0.0	 1	    1.08315	  -10.67240	 220.0	 4	    1.11000	    0.95000;
	145	 2	 0.00	 0.00	 0.0	 0.0	 1	    1.10791	   -4.07139	 220.0	 4	    1.11000	    0.95000;
	146	 2	 0.00	 0.00	 0.0	 0.0	 1	    1.10784	   -4.07486	 220.0	 4	    1.11000	    0.95000;
	147	 2	 38.23	 12.90	 0.0	 0.0	 1	    1.10256	   -2.22879	 220.0	 4	    1.11000	    0.95000;
	148	 1	 0.00	 0.00	 0.0	 0.0	 1	    1.10261	   -2.24790	 220.0	 4	    1.11000	    0.95000;
	149	 2	 16.46	 12.00	 0.0	 0.0	 1	    1.05000	   -5.76721	 400.0	 4	    1.05000	    0.95000;
	150	 2	 17.83	 13.70	 0.0	 0.0	 1	    1.05000	   -5.76556	 400.0	 4	    1.05000	    0.95000;
	151	 1	 0.00	 0.00	 0.0	 0.0	 1	    1.07905	  -11.90659	 220.0	 4	    1.11000	    0.95000;
	152	 1	 0.00	 0.00	 0.0	 0.0	 1	    1.10370	   -7.76889	 220.0	 4	    1.11000	    0.95000;
	153	 1	 0.00	 0.00	 0.0	 0.0	 1	    1.10370	   -7.76195	 220.0	 4	    1.11000	    0.95000;
	154	 2	 29.13	 64.30	 0.0	 0.0	 1	    1.11000	   -4.61843	 220.0	 4	    1.11000	    0.95000;
	155	 2	 23.94	 33.00	 0.0	 0.0	 1	    1.11000	   -4.61839	 220.0	 4	    1.11000	    0.95000;
	156	 1	 0.00	 0.00	 0.0	 0.0	 1	    1.02900	   -4.11850	 400.0	 4	    1.05000	    0.95000;
	157	 2	 14.96	 25.00	 0.0	 0.0	 1	    1.02904	   -4.10758	 400.0	 4	    1.05000	    0.95000;
	158	 1	 0.00	 0.00	 0.0	 0.0	 1	    1.09585	   -3.87432	 220.0	 4	    1.11000	    0.95000;
	159	 1	 0.00	 0.00	 0.0	 0.0	 1	    1.09585	   -3.87432	 220.0	 4	    1.11000	    0.95000;
	160	 1	 0.00	 0.00	 0.0	 0.0	 1	    1.01676	   -7.99823	 400.0	 4	    1.05000	    0.95000;
	161	 1	 0.00	 0.00	 0.0	 0.0	 1	    1.01975	   -7.18373	 400.0	 4	    1.05000	    0.95000;
	162	 1	 0.00	 0.00	 0.0	 0.0	 1	    1.01976	   -7.18432	 400.0	 4	    1.05000	    0.95000;
	163	 2	 8.29	 2.93	 0.0	 0.0	 1	    1.10985	   -4.21657	 220.0	 4	    1.11000	    0.95000;
	164	 2	 27.31	 11.50	 0.0	 0.0	 1	    1.11000	   -4.23132	 220.0	 4	    1.11000	    0.95000;
	165	 1	 0.00	 0.00	 0.0	 0.0	 1	    1.11000	   -4.23132	 220.0	 4	    1.11000	    0.95000;
	166	 1	 0.00	 0.00	 0.0	 0.0	 1	    1.10718	  -15.45033	 220.0	 4	    1.11000	    0.95000;
	167	 1	 0.00	 0.00	 0.0	 0.0	 1	    1.09564	   -4.29151	 220.0	 4	    1.11000	    0.95000;
	168	 1	 0.00	 0.00	 0.0	 0.0	 1	    1.10235	  -11.48253	 220.0	 4	    1.11000	    0.95000;
	169	 1	 0.00	 0.00	 0.0	 0.0	 1	    1.10236	  -11.49527	 220.0	 4	    1.11000	    0.95000;
	170	 1	 0.00	 0.00	 0.0	 0.0	 1	    1.03232	  -10.60266	 400.0	 4	    1.05000	    0.95000;
	171	 1	 0.00	 0.00	 0.0	 0.0	 1	    1.03232	  -10.60266	 400.0	 4	    1.05000	    0.95000;
	172	 1	 0.00	 0.00	 0.0	 0.0	 1	    1.08772	  -10.07823	 220.0	 4	    1.11000	    0.95000;
	173	 1	 0.00	 0.00	 0.0	 0.0	 1	    1.08768	  -10.07889	 220.0	 4	    1.11000	    0.95000;
	174	 1	 0.00	 0.00	 0.0	 0.0	 1	    1.08918	   -8.80744	 220.0	 4	    1.11000	    0.95000;
	175	 1	 0.00	 0.00	 0.0	 0.0	 1	    1.08644	   -8.61464	 220.0	 4	    1.11000	    0.95000;
	176	 1	 0.00	 0.00	 0.0	 0.0	 1	    1.08645	   -8.60612	 220.0	 4	    1.11000	    0.95000;
	177	 1	 0.00	 0.00	 0.0	 0.0	 1	    1.08547	   -7.96771	 220.0	 4	    1.11000	    0.95000;
	178	 1	 0.00	 0.00	 0.0	 0.0	 1	    1.08547	   -7.96771	 220.0	 4	    1.11000	    0.95000;
	179	 2	 4.68	 1.50	 0.0	 0.0	 1	    1.11000	   -7.17570	 220.0	 4	    1.11000	    0.95000;
	180	 1	 0.00	 0.00	 0.0	 0.0	 1	    1.08565	  -10.40299	 220.0	 4	    1.11000	    0.95000;
	181	 1	 0.00	 0.00	 0.0	 0.0	 1	    1.06800	  -12.95116	 220.0	 5	    1.11000	    0.95000;
	182	 1	 0.00	 0.00	 0.0	 0.0	 1	    1.09386	  -12.82887	 220.0	 5	    1.11000	    0.95000;
	183	 1	 0.00	 0.00	 0.0	 0.0	 1	    1.03994	  -11.13996	 400.0	 5	    1.05000	    0.95000;
	184	 1	 0.00	 0.00	 0.0	 0.0	 1	    1.03997	  -11.13196	 400.0	 5	    1.05000	    0.95000;
	185	 1	 0.00	 0.00	 0.0	 0.0	 1	    1.03353	  -13.86655	 400.0	 5	    1.05000	    0.95000;
	186	 1	 0.00	 0.00	 0.0	 0.0	 1	    1.03355	  -13.86836	 400.0	 5	    1.05000	    0.95000;
	187	 1	 0.00	 0.00	 0.0	 0.0	 1	    1.08051	  -16.65507	 220.0	 5	    1.11000	    0.95000;
	188	 1	 0.00	 0.00	 0.0	 0.0	 1	    1.08054	  -16.65385	 220.0	 5	    1.11000	    0.95000;
	189	 1	 0.00	 0.00	 0.0	 0.0	 1	    1.07139	  -13.23958	 220.0	 5	    1.11000	    0.95000;
	190	 1	 0.00	 0.00	 0.0	 0.0	 1	    1.07136	  -13.24620	 220.0	 5	    1.11000	    0.95000;
	191	 1	 0.00	 0.00	 0.0	 0.0	 1	    1.01669	  -12.99723	 400.0	 5	    1.05000	    0.95000;
	192	 1	 0.00	 0.00	 0.0	 0.0	 1	    1.07222	  -12.11782	 220.0	 5	    1.11000	    0.95000;
	193	 1	 0.00	 0.00	 0.0	 0.0	 1	    1.07220	  -12.11236	 220.0	 5	    1.11000	    0.95000;
	194	 1	 0.00	 0.00	 0.0	 0.0	 1	    1.03748	  -14.58493	 400.0	 5	    1.05000	    0.95000;
	195	 1	 0.00	 0.00	 0.0	 0.0	 1	    1.03747	  -14.58664	 400.0	 5	    1.05000	    0.95000;
	196	 1	 0.00	 0.00	 0.0	 0.0	 1	    1.07431	  -15.08754	 220.0	 5	    1.11000	    0.95000;
	197	 1	 0.00	 0.00	 0.0	 0.0	 1	    1.07432	  -15.08608	 220.0	 5	    1.11000	    0.95000;
	198	 1	 0.00	 0.00	 0.0	 -117.0	 1	    1.03011	  -12.25748	 400.0	 5	    1.05000	    0.95000;
	199	 1	 0.00	 0.00	 0.0	 0.0	 1	    1.03017	  -12.25300	 400.0	 5	    1.05000	    0.95000;
	200	 1	 0.00	 0.00	 0.0	 0.0	 1	    1.05656	  -14.40764	 220.0	 5	    1.11000	    0.95000;
...
];

%% generator data
%	bus	Pg	Qg	Qmax	Qmin	Vg	mBase	status	Pmax	Pmin	Pc1	Pc2	Qc1min	Qc1max	Qc2min	Qc2max	ramp_agc	ramp_10	ramp_30	ramp_q	apf
mpc.gen = [
	17	 0.0	 0.0	 120.0	 -35.0	 1.08246	 241.9	 0	 70	 140.0	 0.0	 0.0	 0.0	 0.0	 0.0	 0.0	 0.0	 0.0	 0.0	 0.0	 0.0; % NG
	17	 0.0	 0.0	 120.0	 -80.0	 1.08246	 233.2	 0	 160	 70.0	 0.0	 0.0	 0.0	 0.0	 0.0	 0.0	 0.0	 0.0	 0.0	 0.0	 0.0; % NG
	26	 145.0	 -0.273	 194.0	 -194.0	 1.07688	 415.9	 1	 387	 145.0	 0.0	 0.0	 0.0	 0.0	 0.0	 0.0	 0.0	 0.0	 0.0	 0.0	 0.0; % COW
	27	 145.0	 13.749	 190.0	 -181.0	 1.08167	 407.1	 1	 362	 145.0	 0.0	 0.0	 0.0	 0.0	 0.0	 0.0	 0.0	 0.0	 0.0	 0.0	 0.0; % NG
	27	 416.0	 11.621	 208.0	 -208.0	 1.08167	 407.1	 1	 416	 145.0	 0.0	 0.0	 0.0	 0.0	 0.0	 0.0	 0.0	 0.0	 0.0	 0.0	 0.0; % NG
	27	 145.0	 13.351	 223.0	 -223.0	 1.08167	 415.9	 1	 446	 145.0	 0.0	 0.0	 0.0	 0.0	 0.0	 0.0	 0.0	 0.0	 0.0	 0.0	 0.0; % NG
	26	 145.0	 -0.333	 214.0	 -214.0	 1.07688	 415.9	 1	 427	 145.0	 0.0	 0.0	 0.0	 0.0	 0.0	 0.0	 0.0	 0.0	 0.0	 0.0	 0.0; % NG
	28	 354.0	 17.701	 190.0	 -177.0	 1.03581	 415.9	 1	 354	 145.0	 0.0	 0.0	 0.0	 0.0	 0.0	 0.0	 0.0	 0.0	 0.0	 0.0	 0.0; % COW
	28	 0.0	 0.0	 533.0	 -533.0	 1.03581	 415.9	 0	 1065	 145.0	 0.0	 0.0	 0.0	 0.0	 0.0	 0.0	 0.0	 0.0	 0.0	 0.0	 0.0; % NUC
	28	 561.0	 26.137	 281.0	 -281.0	 1.03581	 415.9	 1	 561	 145.0	 0.0	 0.0	 0.0	 0.0	 0.0	 0.0	 0.0	 0.0	 0.0	 0.0	 0.0; % COW
	29	 0.0	 0.0	 190.0	 -67.0	 1.03577	 415.9	 0	 134	 290.0	 0.0	 0.0	 0.0	 0.0	 0.0	 0.0	 0.0	 0.0	 0.0	 0.0	 0.0; % COW
	29	 145.0	 0.989	 199.0	 -199.0	 1.03577	 415.9	 1	 397	 145.0	 0.0	 0.0	 0.0	 0.0	 0.0	 0.0	 0.0	 0.0	 0.0	 0.0	 0.0; % NG
	29	 145.0	 1.701	 261.0	 -261.0	 1.03577	 415.9	 1	 521	 145.0	 0.0	 0.0	 0.0	 0.0	 0.0	 0.0	 0.0	 0.0	 0.0	 0.0	 0.0; % COW
	42	 227.0	 -37.393	 135.0	 -114.0	 1.10506	 253.9	 1	 227	 65.0	 0.0	 0.0	 0.0	 0.0	 0.0	 0.0	 0.0	 0.0	 0.0	 0.0	 0.0; % NG
	42	 0.0	 0.0	 130.0	 -34.0	 1.10506	 242.7	 0	 0	 135.0	 0.0	 0.0	 0.0	 0.0	 0.0	 0.0	 0.0	 0.0	 0.0	 0.0	 0.0; % COW
	42	 55.0	 -92.05	 184.0	 -184.0	 1.10506	 267.7	 1	 367	 55.0	 0.0	 0.0	 0.0	 0.0	 0.0	 0.0	 0.0	 0.0	 0.0	 0.0	 0.0; % NG
	43	 314.0	 3.653	 157.0	 -157.0	 1.10512	 267.7	 1	 314	 60.0	 0.0	 0.0	 0.0	 0.0	 0.0	 0.0	 0.0	 0.0	 0.0	 0.0	 0.0; % NG
	43	 65.0	 4.538	 175.0	 -175.0	 1.10512	 267.7	 1	 350	 65.0	 0.0	 0.0	 0.0	 0.0	 0.0	 0.0	 0.0	 0.0	 0.0	 0.0	 0.0; % NG
	43	 0.0	 0.0	 130.0	 -34.0	 1.10512	 242.7	 0	 54	 135.0	 0.0	 0.0	 0.0	 0.0	 0.0	 0.0	 0.0	 0.0	 0.0	 0.0	 0.0; % NG
	44	 625.0	 7.903	 363.0	 -313.0	 1.03901	 646.5	 1	 625	 127.5	 0.0	 0.0	 0.0	 0.0	 0.0	 0.0	 0.0	 0.0	 0.0	 0.0	 0.0; % COW
	44	 0.0	 0.0	 1072.0	 -1072.0	 1.03901	 659.3	 0	 2144	 125.0	 0.0	 0.0	 0.0	 0.0	 0.0	 0.0	 0.0	 0.0	 0.0	 0.0	 0.0; % COW
	54	 196.0	 35.985	 104.0	 -98.0	 1.10236	 247.9	 1	 196	 64.5	 0.0	 0.0	 0.0	 0.0	 0.0	 0.0	 0.0	 0.0	 0.0	 0.0	 0.0; % NG
	55	 64.5	 50.853	 130.0	 -109.0	 1.10233	 259.9	 1	 218	 64.5	 0.0	 0.0	 0.0	 0.0	 0.0	 0.0	 0.0	 0.0	 0.0	 0.0	 0.0; % NG
	54	 0.0	 0.0	 130.0	 -72.0	 1.10236	 259.9	 0	 143	 64.5	 0.0	 0.0	 0.0	 0.0	 0.0	 0.0	 0.0	 0.0	 0.0	 0.0	 0.0; % NG
	56	 64.5	 -85.067	 205.0	 -205.0	 1.04349	 259.9	 1	 410	 64.5	 0.0	 0.0	 0.0	 0.0	 0.0	 0.0	 0.0	 0.0	 0.0	 0.0	 0.0; % NG
	57	 525.0	 -56.491	 263.0	 -263.0	 1.04348	 259.9	 1	 525	 64.5	 0.0	 0.0	 0.0	 0.0	 0.0	 0.0	 0.0	 0.0	 0.0	 0.0	 0.0; % COW
	57	 0.0	 0.0	 104.0	 -5.0	 1.04348	 247.9	 0	 10	 129.0	 0.0	 0.0	 0.0	 0.0	 0.0	 0.0	 0.0	 0.0	 0.0	 0.0	 0.0; % NG
	57	 358.841	 -40.066	 220.0	 -220.0	 1.04348	 259.9	 1	 439	 64.5	 0.0	 0.0	 0.0	 0.0	 0.0	 0.0	 0.0	 0.0	 0.0	 0.0	 0.0; % NG
	58	 24.05	 48.708	 78.0	 -78.0	 1.10004	 66.5	 1	 155	 24.05	 0.0	 0.0	 0.0	 0.0	 0.0	 0.0	 0.0	 0.0	 0.0	 0.0	 0.0; % PEL
	77	 70.0	 53.209	 145.0	 -145.0	 1.11	 256.4	 1	 290	 70.0	 0.0	 0.0	 0.0	 0.0	 0.0	 0.0	 0.0	 0.0	 0.0	 0.0	 0.0; % NG
	77	 70.0	 76.563	 179.0	 -179.0	 1.11	 256.4	 1	 358	 70.0	 0.0	 0.0	 0.0	 0.0	 0.0	 0.0	 0.0	 0.0	 0.0	 0.0	 0.0; % NG
	78	 0.0	 0.0	 123.0	 -36.0	 1.11	 252.0	 0	 71	 70.0	 0.0	 0.0	 0.0	 0.0	 0.0	 0.0	 0.0	 0.0	 0.0	 0.0	 0.0; % NG
	78	 219.0	 10.049	 123.0	 -110.0	 1.11	 256.4	 1	 219	 70.0	 0.0	 0.0	 0.0	 0.0	 0.0	 0.0	 0.0	 0.0	 0.0	 0.0	 0.0; % NG
	78	 70.0	 16.946	 255.0	 -255.0	 1.11	 256.4	 1	 509	 70.0	 0.0	 0.0	 0.0	 0.0	 0.0	 0.0	 0.0	 0.0	 0.0	 0.0	 0.0; % COW
	81	 552.0	 -111.201	 276.0	 -276.0	 1.02463	 445.2	 1	 552	 110.0	 0.0	 0.0	 0.0	 0.0	 0.0	 0.0	 0.0	 0.0	 0.0	 0.0	 0.0; % NG
	81	 0.0	 0.0	 228.0	 -92.0	 1.02463	 434.6	 0	 183	 110.0	 0.0	 0.0	 0.0	 0.0	 0.0	 0.0	 0.0	 0.0	 0.0	 0.0	 0.0; % COW
	97	 62.0	 5.055	 31.0	 -31.0	 1.11	 12.0	 1	 62	 4.5	 0.0	 0.0	 0.0	 0.0	 0.0	 0.0	 0.0	 0.0	 0.0	 0.0	 0.0; % NG
	97	 154.0	 27.849	 77.0	 -77.0	 1.11	 6.1	 1	 154	 3.0	 0.0	 0.0	 0.0	 0.0	 0.0	 0.0	 0.0	 0.0	 0.0	 0.0	 0.0; % NG
	103	 298.0	 43.372	 149.0	 -149.0	 1.10339	 256.4	 1	 298	 67.0	 0.0	 0.0	 0.0	 0.0	 0.0	 0.0	 0.0	 0.0	 0.0	 0.0	 0.0; % NG
	104	 0.0	 0.0	 123.0	 -42.0	 1.10332	 256.4	 0	 84	 67.0	 0.0	 0.0	 0.0	 0.0	 0.0	 0.0	 0.0	 0.0	 0.0	 0.0	 0.0; % NG
	105	 192.0	 93.272	 96.0	 -96.0	 1.10494	 144.2	 1	 192	 39.5	 0.0	 0.0	 0.0	 0.0	 0.0	 0.0	 0.0	 0.0	 0.0	 0.0	 0.0; % COW
	106	 0.0	 0.0	 80.0	 -13.0	 1.10479	 144.2	 0	 26	 79.0	 0.0	 0.0	 0.0	 0.0	 0.0	 0.0	 0.0	 0.0	 0.0	 0.0	 0.0; % NG
	115	 0.0	 0.0	 90.0	 -41.0	 1.11	 150.0	 0	 81	 45.0	 0.0	 0.0	 0.0	 0.0	 0.0	 0.0	 0.0	 0.0	 0.0	 0.0	 0.0; % NG
	116	 274.0	 14.894	 137.0	 -137.0	 1.10999	 145.3	 1	 274	 35.0	 0.0	 0.0	 0.0	 0.0	 0.0	 0.0	 0.0	 0.0	 0.0	 0.0	 0.0; % NG
	117	 345.0	 -42.754	 173.0	 -173.0	 1.10994	 117.0	 1	 345	 40.0	 0.0	 0.0	 0.0	 0.0	 0.0	 0.0	 0.0	 0.0	 0.0	 0.0	 0.0; % NG
	124	 80.0	 61.528	 135.0	 -130.0	 1.10984	 253.9	 1	 260	 80.0	 0.0	 0.0	 0.0	 0.0	 0.0	 0.0	 0.0	 0.0	 0.0	 0.0	 0.0; % NG
	125	 533.141	 89.502	 319.0	 -319.0	 1.11	 265.0	 1	 637	 70.0	 0.0	 0.0	 0.0	 0.0	 0.0	 0.0	 0.0	 0.0	 0.0	 0.0	 0.0; % COW
	125	 601.0	 80.334	 301.0	 -301.0	 1.11	 253.9	 1	 601	 80.0	 0.0	 0.0	 0.0	 0.0	 0.0	 0.0	 0.0	 0.0	 0.0	 0.0	 0.0; % COW
	126	 344.0	 -172.0	 172.0	 -172.0	 1.02085	 265.0	 1	 344	 70.0	 0.0	 0.0	 0.0	 0.0	 0.0	 0.0	 0.0	 0.0	 0.0	 0.0	 0.0; % NG
	126	 0.0	 0.0	 137.0	 -40.0	 1.02085	 259.2	 0	 52	 160.0	 0.0	 0.0	 0.0	 0.0	 0.0	 0.0	 0.0	 0.0	 0.0	 0.0	 0.0; % NG
	131	 287.0	 25.263	 144.0	 -144.0	 1.11	 131.2	 1	 287	 0.0	 0.0	 0.0	 0.0	 0.0	 0.0	 0.0	 0.0	 0.0	 0.0	 0.0	 0.0; % COW
	131	 0.0	 0.0	 162.0	 -162.0	 1.11	 131.2	 0	 324	 0.0	 0.0	 0.0	 0.0	 0.0	 0.0	 0.0	 0.0	 0.0	 0.0	 0.0	 0.0; % COW
	132	 0.0	 0.0	 40.0	 -38.0	 1.10695	 131.2	 0	 52	 0.0	 0.0	 0.0	 0.0	 0.0	 0.0	 0.0	 0.0	 0.0	 0.0	 0.0	 0.0; % NG
	132	 0.0	 0.0	 328.0	 -328.0	 1.10695	 131.2	 0	 656	 0.0	 0.0	 0.0	 0.0	 0.0	 0.0	 0.0	 0.0	 0.0	 0.0	 0.0	 0.0; % COW
	133	 0.0	 0.0	 90.0	 -60.0	 1.10983	 150.0	 0	 119	 50.0	 0.0	 0.0	 0.0	 0.0	 0.0	 0.0	 0.0	 0.0	 0.0	 0.0	 0.0; % NG
	133	 50.0	 102.988	 103.0	 -103.0	 1.10983	 150.0	 1	 205	 50.0	 0.0	 0.0	 0.0	 0.0	 0.0	 0.0	 0.0	 0.0	 0.0	 0.0	 0.0; % NG
	134	 445.0	 144.105	 223.0	 -223.0	 1.11	 150.0	 1	 445	 50.0	 0.0	 0.0	 0.0	 0.0	 0.0	 0.0	 0.0	 0.0	 0.0	 0.0	 0.0; % COW
	145	 0.0	 0.0	 27.0	 -27.0	 1.10791	 51.4	 0	 54	 15.0	 0.0	 0.0	 0.0	 0.0	 0.0	 0.0	 0.0	 0.0	 0.0	 0.0	 0.0; % NG
	145	 0.0	 0.0	 45.0	 -45.0	 1.10791	 51.4	 0	 90	 15.0	 0.0	 0.0	 0.0	 0.0	 0.0	 0.0	 0.0	 0.0	 0.0	 0.0	 0.0; % NG
	146	 0.0	 0.0	 90.0	 -27.0	 1.10784	 150.0	 0	 53	 45.0	 0.0	 0.0	 0.0	 0.0	 0.0	 0.0	 0.0	 0.0	 0.0	 0.0	 0.0; % COW
	147	 0.0	 0.0	 149.0	 -50.0	 1.10256	 267.4	 0	 100	 45.0	 0.0	 0.0	 0.0	 0.0	 0.0	 0.0	 0.0	 0.0	 0.0	 0.0	 0.0; % NG
	147	 0.0	 0.0	 201.0	 -201.0	 1.10256	 253.4	 0	 402	 67.5	 0.0	 0.0	 0.0	 0.0	 0.0	 0.0	 0.0	 0.0	 0.0	 0.0	 0.0; % COW
	147	 0.0	 0.0	 149.0	 -48.0	 1.10256	 253.4	 0	 92	 67.5	 0.0	 0.0	 0.0	 0.0	 0.0	 0.0	 0.0	 0.0	 0.0	 0.0	 0.0; % NG
	147	 325.0	 -54.201	 163.0	 -163.0	 1.10256	 267.4	 1	 325	 45.0	 0.0	 0.0	 0.0	 0.0	 0.0	 0.0	 0.0	 0.0	 0.0	 0.0	 0.0; % NG
	149	 45.0	 42.003	 237.6	 -237.6	 1.05	 253.8	 1	 380	 45.0	 0.0	 0.0	 0.0	 0.0	 0.0	 0.0	 0.0	 0.0	 0.0	 0.0	 0.0; % NG
	150	 282.0	 -22.838	 149.0	 -141.0	 1.05	 267.4	 1	 282	 45.0	 0.0	 0.0	 0.0	 0.0	 0.0	 0.0	 0.0	 0.0	 0.0	 0.0	 0.0; % NG
	150	 0.0	 0.0	 135.0	 -135.0	 1.05	 253.8	 0	 270	 45.0	 0.0	 0.0	 0.0	 0.0	 0.0	 0.0	 0.0	 0.0	 0.0	 0.0	 0.0; % NG
	154	 226.0	 28.782	 149.0	 -113.0	 1.11	 278.3	 1	 226	 47.0	 0.0	 0.0	 0.0	 0.0	 0.0	 0.0	 0.0	 0.0	 0.0	 0.0	 0.0; % COW
	154	 0.0	 0.0	 149.0	 -53.0	 1.11	 278.3	 0	 20	 94.0	 0.0	 0.0	 0.0	 0.0	 0.0	 0.0	 0.0	 0.0	 0.0	 0.0	 0.0; % NG
	154	 209.0	 15.466	 120.0	 -105.0	 1.11	 287.3	 1	 209	 52.0	 0.0	 0.0	 0.0	 0.0	 0.0	 0.0	 0.0	 0.0	 0.0	 0.0	 0.0; % COW
	154	 0.0	 0.0	 132.0	 -40.0	 1.11	 292.5	 0	 30	 104.0	 0.0	 0.0	 0.0	 0.0	 0.0	 0.0	 0.0	 0.0	 0.0	 0.0	 0.0; % NG
	155	 0.0	 0.0	 168.0	 -168.0	 1.11	 287.3	 0	 335	 52.0	 0.0	 0.0	 0.0	 0.0	 0.0	 0.0	 0.0	 0.0	 0.0	 0.0	 0.0; % COW
	155	 65.0	 -8.838	 370.0	 -370.0	 1.11	 236.0	 1	 740	 65.0	 0.0	 0.0	 0.0	 0.0	 0.0	 0.0	 0.0	 0.0	 0.0	 0.0	 0.0; % NG
	155	 288.0	 -1.339	 144.0	 -144.0	 1.11	 233.1	 1	 288	 60.0	 0.0	 0.0	 0.0	 0.0	 0.0	 0.0	 0.0	 0.0	 0.0	 0.0	 0.0; % NG
	155	 0.0	 0.0	 109.0	 -20.0	 1.11	 233.1	 0	 7	 120.0	 0.0	 0.0	 0.0	 0.0	 0.0	 0.0	 0.0	 0.0	 0.0	 0.0	 0.0; % NG
	157	 452.0	 134.954	 226.0	 -226.0	 1.02904	 233.1	 1	 452	 60.0	 0.0	 0.0	 0.0	 0.0	 0.0	 0.0	 0.0	 0.0	 0.0	 0.0	 0.0; % NG
	163	 0.0	 0.0	 104.0	 -23.0	 1.10985	 225.4	 0	 29	 150.0	 0.0	 0.0	 0.0	 0.0	 0.0	 0.0	 0.0	 0.0	 0.0	 0.0	 0.0; % NG
	163	 248.0	 100.288	 124.0	 -124.0	 1.10985	 225.4	 1	 248	 75.0	 0.0	 0.0	 0.0	 0.0	 0.0	 0.0	 0.0	 0.0	 0.0	 0.0	 0.0; % NG
	164	 330.0	 153.456	 165.0	 -165.0	 1.11	 225.4	 1	 330	 75.0	 0.0	 0.0	 0.0	 0.0	 0.0	 0.0	 0.0	 0.0	 0.0	 0.0	 0.0; % NG
	164	 75.0	 100.66	 112.0	 -112.0	 1.11	 225.4	 1	 223	 75.0	 0.0	 0.0	 0.0	 0.0	 0.0	 0.0	 0.0	 0.0	 0.0	 0.0	 0.0; % NG
	179	 85.0	 31.373	 308.0	 -308.0	 1.11	 219.5	 1	 615	 85.0	 0.0	 0.0	 0.0	 0.0	 0.0	 0.0	 0.0	 0.0	 0.0	 0.0	 0.0; % NG
	204	 77.0	 5.104	 110.0	 -60.0	 1.03409	 210.1	 1	 77	 0.0	 0.0	 0.0	 0.0	 0.0	 0.0	 0.0	 0.0	 0.0	 0.0	 0.0	 0.0; % COW
	204	 158.0	 -8.798	 110.0	 -79.0	 1.03409	 210.1	 1	 158	 0.0	 0.0	 0.0	 0.0	 0.0	 0.0	 0.0	 0.0	 0.0	 0.0	 0.0	 0.0; % COW
	204	 58.0	 5.104	 110.0	 -60.0	 1.03409	 210.1	 1	 58	 0.0	 0.0	 0.0	 0.0	 0.0	 0.0	 0.0	 0.0	 0.0	 0.0	 0.0	 0.0; % NG
	205	 0.0	 -21.349	 110.0	 -60.0	 1.03409	 210.1	 1	 112	 0.0	 0.0	 0.0	 0.0	 0.0	 0.0	 0.0	 0.0	 0.0	 0.0	 0.0	 0.0; % NG
	214	 104.954	 -0.708	 85.0	 -85.0	 1.10638	 58.5	 1	 169	 17.5	 0.0	 0.0	 0.0	 0.0	 0.0	 0.0	 0.0	 0.0	 0.0	 0.0	 0.0; % NG
	214	 0.0	 0.0	 20.0	 0.0	 1.10638	 53.9	 0	 0	 0.0	 0.0	 0.0	 0.0	 0.0	 0.0	 0.0	 0.0	 0.0	 0.0	 0.0	 0.0; % SYNC
	214	 0.0	 0.0	 20.0	 0.0	 1.10638	 53.9	 0	 0	 0.0	 0.0	 0.0	 0.0	 0.0	 0.0	 0.0	 0.0	 0.0	 0.0	 0.0	 0.0; % SYNC
	214	 5.0	 -0.245	 50.0	 -50.0	 1.10638	 30.5	 1	 100	 5.0	 0.0	 0.0	 0.0	 0.0	 0.0	 0.0	 0.0	 0.0	 0.0	 0.0	 0.0; % NG
	220	 0.775	 -1.23	 35.0	 -35.0	 1.09503	 2.3	 1	 69	 0.775	 0.0	 0.0	 0.0	 0.0	 0.0	 0.0	 0.0	 0.0	 0.0	 0.0	 0.0; % PEL
	221	 0.775	 -20.801	 39.0	 -39.0	 0.99796	 2.3	 1	 78	 0.775	 0.0	 0.0	 0.0	 0.0	 0.0	 0.0	 0.0	 0.0	 0.0	 0.0	 0.0; % PEL
	239	 132.0	 25.425	 66.0	 -66.0	 1.12	 9.8	 1	 132	 3.5	 0.0	 0.0	 0.0	 0.0	 0.0	 0.0	 0.0	 0.0	 0.0	 0.0	 0.0; % NG
	246	 145.0	 25.238	 195.0	 -195.0	 1.05409	 415.9	 1	 389	 145.0	 0.0	 0.0	 0.0	 0.0	 0.0	 0.0	 0.0	 0.0	 0.0	 0.0	 0.0; % NG
	309	 0.0	 0.0	 7.0	 0.0	 1.0606	 27.9	 0	 0	 0.0	 0.0	 0.0	 0.0	 0.0	 0.0	 0.0	 0.0	 0.0	 0.0	 0.0	 0.0; % SYNC
	309	 0.0	 0.0	 7.0	 0.0	 1.0606	 27.9	 0	 0	 0.0	 0.0	 0.0	 0.0	 0.0	 0.0	 0.0	 0.0	 0.0	 0.0	 0.0	 0.0; % SYNC
	309	 5.5	 -31.998	 32.0	 -32.0	 1.0606	 30.8	 1	 64	 5.5	 0.0	 0.0	 0.0	 0.0	 0.0	 0.0	 0.0	 0.0	 0.0	 0.0	 0.0; % PEL
	309	 0.0	 0.0	 7.0	 0.0	 1.0606	 27.9	 0	 0	 0.0	 0.0	 0.0	 0.0	 0.0	 0.0	 0.0	 0.0	 0.0	 0.0	 0.0	 0.0; % SYNC
	309	 0.0	 0.0	 6.0	 0.0	 1.0606	 27.7	 0	 0	 0.0	 0.0	 0.0	 0.0	 0.0	 0.0	 0.0	 0.0	 0.0	 0.0	 0.0	 0.0; % SYNC
	309	 0.0	 0.0	 7.0	 0.0	 1.0606	 27.9	 0	 0	 0.0	 0.0	 0.0	 0.0	 0.0	 0.0	 0.0	 0.0	 0.0	 0.0	 0.0	 0.0; % SYNC
	309	 0.0	 0.0	 7.0	 0.0	 1.0606	 27.9	 0	 0	 0.0	 0.0	 0.0	 0.0	 0.0	 0.0	 0.0	 0.0	 0.0	 0.0	 0.0	 0.0; % SYNC
	310	 7.5	 17.381	 56.0	 -56.0	 1.07707	 36.7	 1	 112	 7.5	 0.0	 0.0	 0.0	 0.0	 0.0	 0.0	 0.0	 0.0	 0.0	 0.0	 0.0; % PEL
	310	 0.0	 0.0	 15.0	 0.0	 1.07707	 57.0	 0	 0	 0.0	 0.0	 0.0	 0.0	 0.0	 0.0	 0.0	 0.0	 0.0	 0.0	 0.0	 0.0; % SYNC
	311	 143.0	 23.118	 72.0	 -72.0	 1.07053	 36.7	 1	 143	 7.5	 0.0	 0.0	 0.0	 0.0	 0.0	 0.0	 0.0	 0.0	 0.0	 0.0	 0.0; % COW
	311	 0.0	 0.0	 15.0	 0.0	 1.07053	 57.0	 0	 0	 0.0	 0.0	 0.0	 0.0	 0.0	 0.0	 0.0	 0.0	 0.0	 0.0	 0.0	 0.0; % SYNC
	313	 15.0	 12.148	 75.0	 -75.0	 1.08206	 53.9	 1	 149	 15.0	 0.0	 0.0	 0.0	 0.0	 0.0	 0.0	 0.0	 0.0	 0.0	 0.0	 0.0; % NG
	313	 0.0	 0.0	 20.0	 0.0	 1.08206	 53.9	 0	 0	 0.0	 0.0	 0.0	 0.0	 0.0	 0.0	 0.0	 0.0	 0.0	 0.0	 0.0	 0.0; % SYNC
	314	 0.0	 0.0	 40.0	 0.0	 1.0658	 107.7	 0	 0	 0.0	 0.0	 0.0	 0.0	 0.0	 0.0	 0.0	 0.0	 0.0	 0.0	 0.0	 0.0; % SYNC
	322	 1.25	 8.901	 85.0	 -85.0	 1.08087	 4.1	 1	 170	 1.25	 0.0	 0.0	 0.0	 0.0	 0.0	 0.0	 0.0	 0.0	 0.0	 0.0	 0.0; % PEL
	365	 188.0	 -17.535	 94.0	 -94.0	 1.10909	 47.8	 1	 188	 21.625	 0.0	 0.0	 0.0	 0.0	 0.0	 0.0	 0.0	 0.0	 0.0	 0.0	 0.0; % NG
	366	 42.776	 18.357	 112.0	 -112.0	 1.08346	 47.8	 1	 224	 21.625	 0.0	 0.0	 0.0	 0.0	 0.0	 0.0	 0.0	 0.0	 0.0	 0.0	 0.0; % NG
	367	 212.134	 -2.26	 171.0	 -171.0	 1.12	 47.8	 1	 342	 21.625	 0.0	 0.0	 0.0	 0.0	 0.0	 0.0	 0.0	 0.0	 0.0	 0.0	 0.0; % NG
	368	 21.625	 13.798	 76.0	 -76.0	 1.10469	 47.8	 1	 151	 21.625	 0.0	 0.0	 0.0	 0.0	 0.0	 0.0	 0.0	 0.0	 0.0	 0.0	 0.0; % PEL
	385	 104.693	 46.73	 166.0	 -166.0	 1.09994	 251.3	 1	 331	 70.0	 0.0	 0.0	 0.0	 0.0	 0.0	 0.0	 0.0	 0.0	 0.0	 0.0	 0.0; % NG
	385	 0.0	 0.0	 13.0	 -13.0	 1.09994	 26.9	 0	 26	 6.0	 0.0	 0.0	 0.0	 0.0	 0.0	 0.0	 0.0	 0.0	 0.0	 0.0	 0.0; % PEL
	386	 173.0	 25.228	 87.0	 -87.0	 1.10993	 19.7	 1	 173	 5.0	 0.0	 0.0	 0.0	 0.0	 0.0	 0.0	 0.0	 0.0	 0.0	 0.0	 0.0; % NG
	443	 0.75	 8.723	 29.0	 -29.0	 1.0531	 3.6	 1	 58	 0.75	 0.0	 0.0	 0.0	 0.0	 0.0	 0.0	 0.0	 0.0	 0.0	 0.0	 0.0; % PEL
	452	 87.0	 1.639	 44.0	 -44.0	 1.1166	 6.1	 1	 87	 2.605	 0.0	 0.0	 0.0	 0.0	 0.0	 0.0	 0.0	 0.0	 0.0	 0.0	 0.0; % COW
	452	 0.0	 0.0	 2.0	 0.0	 1.1166	 6.1	 0	 0	 0.0	 0.0	 0.0	 0.0	 0.0	 0.0	 0.0	 0.0	 0.0	 0.0	 0.0	 0.0; % SYNC
	485	 0.7	 8.162	 20.0	 -20.0	 1.05655	 1.7	 1	 39	 0.7	 0.0	 0.0	 0.0	 0.0	 0.0	 0.0	 0.0	 0.0	 0.0	 0.0	 0.0; % PEL
	536	 342.366	 -13.092	 197.0	 -197.0	 1.10655	 53.9	 1	 394	 20.0	 0.0	 0.0	 0.0	 0.0	 0.0	 0.0	 0.0	 0.0	 0.0	 0.0	 0.0; % NG
	536	 0.0	 0.0	 14.0	 0.0	 1.10655	 34.9	 0	 0	 0.0	 0.0	 0.0	 0.0	 0.0	 0.0	 0.0	 0.0	 0.0	 0.0	 0.0	 0.0; % SYNC
	536	 0.0	 0.0	 14.0	 0.0	 1.10655	 34.0	 0	 0	 0.0	 0.0	 0.0	 0.0	 0.0	 0.0	 0.0	 0.0	 0.0	 0.0	 0.0	 0.0; % SYNC
	536	 0.0	 0.0	 14.0	 0.0	 1.10655	 105.9	 0	 0	 0.0	 0.0	 0.0	 0.0	 0.0	 0.0	 0.0	 0.0	 0.0	 0.0	 0.0	 0.0; % SYNC
	536	 0.0	 0.0	 14.0	 0.0	 1.10655	 105.9	 0	 0	 0.0	 0.0	 0.0	 0.0	 0.0	 0.0	 0.0	 0.0	 0.0	 0.0	 0.0	 0.0; % SYNC
	537	 12.5	 18.119	 58.0	 -58.0	 1.10432	 36.5	 1	 115	 12.5	 0.0	 0.0	 0.0	 0.0	 0.0	 0.0	 0.0	 0.0	 0.0	 0.0	 0.0; % NG
	537	 170.0	 35.572	 85.0	 -85.0	 1.10432	 35.6	 1	 170	 12.5	 0.0	 0.0	 0.0	 0.0	 0.0	 0.0	 0.0	 0.0	 0.0	 0.0	 0.0; % NG
	537	 0.0	 0.0	 17.5	 0.0	 1.10432	 126.2	 0	 0	 0.0	 0.0	 0.0	 0.0	 0.0	 0.0	 0.0	 0.0	 0.0	 0.0	 0.0	 0.0; % SYNC
	537	 0.0	 0.0	 17.5	 0.0	 1.10432	 106.4	 0	 0	 0.0	 0.0	 0.0	 0.0	 0.0	 0.0	 0.0	 0.0	 0.0	 0.0	 0.0	 0.0; % SYNC
	551	 0.7	 -1.927	 130.0	 -130.0	 1.10045	 1.7	 1	 260	 0.7	 0.0	 0.0	 0.0	 0.0	 0.0	 0.0	 0.0	 0.0	 0.0	 0.0	 0.0; % NG
	559	 433.506	 -2.342	 287.0	 -287.0	 1.12	 34.4	 1	 574	 15.0	 0.0	 0.0	 0.0	 0.0	 0.0	 0.0	 0.0	 0.0	 0.0	 0.0	 0.0; % NG
	559	 0.0	 0.0	 5.0	 0.0	 1.12	 28.4	 0	 0	 0.0	 0.0	 0.0	 0.0	 0.0	 0.0	 0.0	 0.0	 0.0	 0.0	 0.0	 0.0; % SYNC
	559	 0.0	 0.0	 5.0	 0.0	 1.12	 26.5	 0	 0	 0.0	 0.0	 0.0	 0.0	 0.0	 0.0	 0.0	 0.0	 0.0	 0.0	 0.0	 0.0; % SYNC
	559	 0.0	 0.0	 5.0	 0.0	 1.12	 30.4	 0	 0	 0.0	 0.0	 0.0	 0.0	 0.0	 0.0	 0.0	 0.0	 0.0	 0.0	 0.0	 0.0; % SYNC
	559	 0.0	 0.0	 5.0	 0.0	 1.12	 34.4	 0	 0	 0.0	 0.0	 0.0	 0.0	 0.0	 0.0	 0.0	 0.0	 0.0	 0.0	 0.0	 0.0; % SYNC
	560	 209.0	 23.144	 105.0	 -105.0	 1.10695	 34.4	 1	 209	 15.0	 0.0	 0.0	 0.0	 0.0	 0.0	 0.0	 0.0	 0.0	 0.0	 0.0	 0.0; % NG
	560	 0.0	 0.0	 5.0	 0.0	 1.10695	 34.4	 0	 0	 0.0	 0.0	 0.0	 0.0	 0.0	 0.0	 0.0	 0.0	 0.0	 0.0	 0.0	 0.0; % SYNC
	560	 0.0	 0.0	 5.0	 0.0	 1.10695	 26.5	 0	 0	 0.0	 0.0	 0.0	 0.0	 0.0	 0.0	 0.0	 0.0	 0.0	 0.0	 0.0	 0.0; % SYNC
	560	 0.0	 0.0	 5.0	 0.0	 1.10695	 34.4	 0	 0	 0.0	 0.0	 0.0	 0.0	 0.0	 0.0	 0.0	 0.0	 0.0	 0.0	 0.0	 0.0; % SYNC
	573	 0.5	 -25.0	 25.0	 -25.0	 1.02932	 8.9	 1	 49	 0.5	 0.0	 0.0	 0.0	 0.0	 0.0	 0.0	 0.0	 0.0	 0.0	 0.0	 0.0; % PEL
	626	 39.0	 3.546	 122.0	 -122.0	 1.07834	 97.7	 1	 244	 39.0	 0.0	 0.0	 0.0	 0.0	 0.0	 0.0	 0.0	 0.0	 0.0	 0.0	 0.0; % PEL
	626	 15.0	 4.655	 30.0	 -21.0	 1.07834	 46.8	 1	 41	 15.0	 0.0	 0.0	 0.0	 0.0	 0.0	 0.0	 0.0	 0.0	 0.0	 0.0	 0.0; % PEL
	664	 199.0	 59.253	 145.0	 -100.0	 1.11282	 267.7	 1	 199	 65.0	 0.0	 0.0	 0.0	 0.0	 0.0	 0.0	 0.0	 0.0	 0.0	 0.0	 0.0; % NG
	665	 0.0	 0.0	 145.0	 -34.0	 1.1123	 267.7	 0	 36	 130.0	 0.0	 0.0	 0.0	 0.0	 0.0	 0.0	 0.0	 0.0	 0.0	 0.0	 0.0; % NG
	685	 216.478	 8.219	 187.0	 -187.0	 1.1047	 182.5	 1	 374	 75.0	 0.0	 0.0	 0.0	 0.0	 0.0	 0.0	 0.0	 0.0	 0.0	 0.0	 0.0; % COW
	685	 25.0	 0.565	 49.0	 -49.0	 1.1047	 77.5	 1	 98	 25.0	 0.0	 0.0	 0.0	 0.0	 0.0	 0.0	 0.0	 0.0	 0.0	 0.0	 0.0; % NG
	691	 1.215	 3.519	 18.0	 -18.0	 1.09676	 3.1	 1	 35	 1.215	 0.0	 0.0	 0.0	 0.0	 0.0	 0.0	 0.0	 0.0	 0.0	 0.0	 0.0; % PEL
	716	 0.735	 13.199	 13.2	 -13.2	 1.07759	 10.1	 1	 26	 0.735	 0.0	 0.0	 0.0	 0.0	 0.0	 0.0	 0.0	 0.0	 0.0	 0.0	 0.0; % PEL
	740	 64.5	 -23.587	 130.0	 -84.0	 1.08537	 259.9	 1	 147	 64.5	 0.0	 0.0	 0.0	 0.0	 0.0	 0.0	 0.0	 0.0	 0.0	 0.0	 0.0; % NG
	763	 43.0	 5.976	 81.0	 -81.0	 1.08038	 105.4	 1	 161	 43.0	 0.0	 0.0	 0.0	 0.0	 0.0	 0.0	 0.0	 0.0	 0.0	 0.0	 0.0; % PEL
	792	 95.0	 12.278	 48.0	 -48.0	 1.07521	 8.4	 1	 95	 0.5	 0.0	 0.0	 0.0	 0.0	 0.0	 0.0	 0.0	 0.0	 0.0	 0.0	 0.0; % NG
	796	 2.5	 6.249	 44.0	 -44.0	 1.07017	 71.9	 1	 87	 2.5	 0.0	 0.0	 0.0	 0.0	 0.0	 0.0	 0.0	 0.0	 0.0	 0.0	 0.0; % PEL
	796	 0.0	 0.0	 23.0	 -10.0	 1.07017	 71.9	 0	 19	 2.5	 0.0	 0.0	 0.0	 0.0	 0.0	 0.0	 0.0	 0.0	 0.0	 0.0	 0.0; % PEL
	796	 0.0	 0.0	 377.0	 -377.0	 1.07017	 32.9	 0	 753	 8.0	 0.0	 0.0	 0.0	 0.0	 0.0	 0.0	 0.0	 0.0	 0.0	 0.0	 0.0; % COW
	796	 0.0	 0.0	 19.0	 -19.0	 1.07017	 32.6	 0	 37	 8.0	 0.0	 0.0	 0.0	 0.0	 0.0	 0.0	 0.0	 0.0	 0.0	 0.0	 0.0; % NG
	807	 0.0	 0.0	 45.0	 -45.0	 1.08452	 125.4	 0	 89	 42.0	 0.0	 0.0	 0.0	 0.0	 0.0	 0.0	 0.0	 0.0	 0.0	 0.0	 0.0; % NG
	808	 46.0	 8.909	 56.0	 -56.0	 1.07596	 125.4	 1	 111	 46.0	 0.0	 0.0	 0.0	 0.0	 0.0	 0.0	 0.0	 0.0	 0.0	 0.0	 0.0; % NG
	845	 68.0	 2.973	 34.0	 -34.0	 1.08125	 33.0	 1	 68	 7.5	 0.0	 0.0	 0.0	 0.0	 0.0	 0.0	 0.0	 0.0	 0.0	 0.0	 0.0; % NG
	845	 7.5	 10.026	 63.0	 -63.0	 1.08125	 33.0	 1	 125	 7.5	 0.0	 0.0	 0.0	 0.0	 0.0	 0.0	 0.0	 0.0	 0.0	 0.0	 0.0; % PEL
	845	 0.0	 0.0	 0.0	 0.0	 1.08125	 19.0	 0	 0	 0.0	 0.0	 0.0	 0.0	 0.0	 0.0	 0.0	 0.0	 0.0	 0.0	 0.0	 0.0; % SYNC
	845	 0.0	 0.0	 0.0	 0.0	 1.08125	 19.0	 0	 0	 0.0	 0.0	 0.0	 0.0	 0.0	 0.0	 0.0	 0.0	 0.0	 0.0	 0.0	 0.0; % SYNC
	877	 98.0	 16.878	 49.0	 -49.0	 1.10999	 87.7	 1	 98	 17.5	 0.0	 0.0	 0.0	 0.0	 0.0	 0.0	 0.0	 0.0	 0.0	 0.0	 0.0; % NG
	900	 0.0	 0.0	 45.0	 -10.0	 1.1022	 65.8	 0	 0	 0.0	 0.0	 0.0	 0.0	 0.0	 0.0	 0.0	 0.0	 0.0	 0.0	 0.0	 0.0; % SYNC
	900	 45.532	 80.357	 176.0	 -176.0	 1.1022	 71.1	 1	 352	 25.0	 0.0	 0.0	 0.0	 0.0	 0.0	 0.0	 0.0	 0.0	 0.0	 0.0	 0.0; % NG
	900	 0.0	 0.0	 45.0	 -10.0	 1.1022	 71.1	 0	 0	 0.0	 0.0	 0.0	 0.0	 0.0	 0.0	 0.0	 0.0	 0.0	 0.0	 0.0	 0.0; % SYNC
	975	 0.0	 0.0	 110.0	 -40.0	 1.10457	 162.2	 0	 0	 0.0	 0.0	 0.0	 0.0	 0.0	 0.0	 0.0	 0.0	 0.0	 0.0	 0.0	 0.0; % SYNC
	976	 50.0	 49.242	 112.0	 -112.0	 1.11437	 162.2	 1	 224	 50.0	 0.0	 0.0	 0.0	 0.0	 0.0	 0.0	 0.0	 0.0	 0.0	 0.0	 0.0; % NG
	980	 0.0	 0.0	 0.0	 0.0	 1.08965	 16.8	 0	 0	 0.0	 0.0	 0.0	 0.0	 0.0	 0.0	 0.0	 0.0	 0.0	 0.0	 0.0	 0.0; % SYNC
	1001	 110.0	 64.375	 240.0	 -153.0	 1.1112	 454.5	 1	 306	 110.0	 0.0	 0.0	 0.0	 0.0	 0.0	 0.0	 0.0	 0.0	 0.0	 0.0	 0.0; % NG
	1002	 328.0	 111.675	 227.0	 -164.0	 1.12	 434.1	 1	 328	 110.0	 0.0	 0.0	 0.0	 0.0	 0.0	 0.0	 0.0	 0.0	 0.0	 0.0	 0.0; % NG
	1006	 3.0	 29.169	 42.0	 -42.0	 1.09359	 7.1	 1	 83	 3.0	 0.0	 0.0	 0.0	 0.0	 0.0	 0.0	 0.0	 0.0	 0.0	 0.0	 0.0; % PEL
	1005	 2.0	 -47.595	 66.0	 -66.0	 1.09314	 4.0	 1	 131	 2.0	 0.0	 0.0	 0.0	 0.0	 0.0	 0.0	 0.0	 0.0	 0.0	 0.0	 0.0; % NG
	1006	 2.0	 31.992	 45.0	 -45.0	 1.09359	 5.0	 1	 89	 2.0	 0.0	 0.0	 0.0	 0.0	 0.0	 0.0	 0.0	 0.0	 0.0	 0.0	 0.0; % NG
	1006	 0.0	 0.0	 0.0	 0.0	 1.09359	 6.0	 0	 0	 0.0	 0.0	 0.0	 0.0	 0.0	 0.0	 0.0	 0.0	 0.0	 0.0	 0.0	 0.0; % SYNC
	1007	 0.0	 0.0	 110.0	 -40.0	 1.10562	 174.1	 0	 0	 0.0	 0.0	 0.0	 0.0	 0.0	 0.0	 0.0	 0.0	 0.0	 0.0	 0.0	 0.0; % SYNC
	1013	 7.5	 56.307	 141.0	 -141.0	 1.11588	 20.6	 1	 281	 7.5	 0.0	 0.0	 0.0	 0.0	 0.0	 0.0	 0.0	 0.0	 0.0	 0.0	 0.0; % NG
	1013	 0.0	 0.0	 0.0	 0.0	 1.11588	 12.8	 0	 0	 0.0	 0.0	 0.0	 0.0	 0.0	 0.0	 0.0	 0.0	 0.0	 0.0	 0.0	 0.0; % SYNC
	1013	 0.0	 0.0	 0.0	 0.0	 1.11588	 12.5	 0	 0	 0.0	 0.0	 0.0	 0.0	 0.0	 0.0	 0.0	 0.0	 0.0	 0.0	 0.0	 0.0; % SYNC
	1015	 0.0	 0.0	 0.0	 0.0	 1.10233	 20.0	 0	 0	 0.0	 0.0	 0.0	 0.0	 0.0	 0.0	 0.0	 0.0	 0.0	 0.0	 0.0	 0.0; % SYNC
	1015	 0.0	 0.0	 0.0	 0.0	 1.10233	 19.0	 0	 0	 0.0	 0.0	 0.0	 0.0	 0.0	 0.0	 0.0	 0.0	 0.0	 0.0	 0.0	 0.0; % SYNC
	1024	 173.0	 87.0	 87.0	 -87.0	 1.11067	 30.0	 1	 173	 6.0	 0.0	 0.0	 0.0	 0.0	 0.0	 0.0	 0.0	 0.0	 0.0	 0.0	 0.0; % NG
	1025	 0.0	 0.0	 18.0	 -0.0	 1.11009	 30.0	 0	 0	 0.0	 0.0	 0.0	 0.0	 0.0	 0.0	 0.0	 0.0	 0.0	 0.0	 0.0	 0.0; % SYNC
	1026	 0.0	 0.0	 14.0	 -0.0	 1.10986	 32.2	 0	 0	 0.0	 0.0	 0.0	 0.0	 0.0	 0.0	 0.0	 0.0	 0.0	 0.0	 0.0	 0.0; % SYNC
	1113	 0.0	 0.0	 37.5	 -0.0	 1.11968	 62.5	 0	 0	 0.0	 0.0	 0.0	 0.0	 0.0	 0.0	 0.0	 0.0	 0.0	 0.0	 0.0	 0.0; % SYNC
	1114	 0.0	 0.0	 37.5	 -0.0	 1.09289	 62.5	 0	 0	 0.0	 0.0	 0.0	 0.0	 0.0	 0.0	 0.0	 0.0	 0.0	 0.0	 0.0	 0.0; % SYNC
	1113	 205.0	 102.999	 103.0	 -103.0	 1.11968	 62.5	 1	 205	 25.0	 0.0	 0.0	 0.0	 0.0	 0.0	 0.0	 0.0	 0.0	 0.0	 0.0	 0.0; % NG
	1115	 0.0	 0.0	 37.5	 -0.0	 1.08621	 62.5	 0	 0	 0.0	 0.0	 0.0	 0.0	 0.0	 0.0	 0.0	 0.0	 0.0	 0.0	 0.0	 0.0; % SYNC
	1152	 8.5	 -1.629	 113.0	 -113.0	 1.08822	 30.5	 1	 226	 8.5	 0.0	 0.0	 0.0	 0.0	 0.0	 0.0	 0.0	 0.0	 0.0	 0.0	 0.0; % NG
	1152	 0.0	 0.0	 0.0	 0.0	 1.08822	 6.0	 0	 0	 0.0	 0.0	 0.0	 0.0	 0.0	 0.0	 0.0	 0.0	 0.0	 0.0	 0.0	 0.0; % SYNC
	1153	 117.0	 -1.495	 59.0	 -59.0	 1.09195	 30.5	 1	 117	 8.5	 0.0	 0.0	 0.0	 0.0	 0.0	 0.0	 0.0	 0.0	 0.0	 0.0	 0.0; % NG
	1153	 0.0	 0.0	 0.0	 0.0	 1.09195	 25.0	 0	 0	 0.0	 0.0	 0.0	 0.0	 0.0	 0.0	 0.0	 0.0	 0.0	 0.0	 0.0	 0.0; % SYNC
	1154	 8.0	 -5.934	 57.0	 -57.0	 1.08191	 30.5	 1	 114	 8.0	 0.0	 0.0	 0.0	 0.0	 0.0	 0.0	 0.0	 0.0	 0.0	 0.0	 0.0; % NG
	1154	 0.0	 0.0	 0.0	 0.0	 1.08191	 6.0	 0	 0	 0.0	 0.0	 0.0	 0.0	 0.0	 0.0	 0.0	 0.0	 0.0	 0.0	 0.0	 0.0; % SYNC
	1179	 44.101	 42.364	 98.0	 -98.0	 1.10533	 87.5	 1	 195	 35.0	 0.0	 0.0	 0.0	 0.0	 0.0	 0.0	 0.0	 0.0	 0.0	 0.0	 0.0; % NG
	1180	 0.0	 0.0	 52.5	 0.0	 1.09843	 87.5	 0	 0	 0.0	 0.0	 0.0	 0.0	 0.0	 0.0	 0.0	 0.0	 0.0	 0.0	 0.0	 0.0; % SYNC
	1180	 0.0	 0.0	 42.0	 -0.0	 1.09843	 65.3	 0	 0	 0.0	 0.0	 0.0	 0.0	 0.0	 0.0	 0.0	 0.0	 0.0	 0.0	 0.0	 0.0; % SYNC
	1188	 25.0	 51.657	 112.0	 -112.0	 1.10573	 50.0	 1	 224	 25.0	 0.0	 0.0	 0.0	 0.0	 0.0	 0.0	 0.0	 0.0	 0.0	 0.0	 0.0; % NG
	1246	 5.0	 43.953	 50.0	 -50.0	 1.12	 16.7	 1	 99	 5.0	 0.0	 0.0	 0.0	 0.0	 0.0	 0.0	 0.0	 0.0	 0.0	 0.0	 0.0; % NG
	1246	 0.0	 0.0	 0.0	 0.0	 1.12	 24.0	 0	 0	 0.0	 0.0	 0.0	 0.0	 0.0	 0.0	 0.0	 0.0	 0.0	 0.0	 0.0	 0.0; % SYNC
	1247	 0.0	 0.0	 0.0	 0.0	 1.0928	 14.6	 0	 0	 0.0	 0.0	 0.0	 0.0	 0.0	 0.0	 0.0	 0.0	 0.0	 0.0	 0.0	 0.0; % SYNC
	1247	 0.0	 0.0	 0.0	 0.0	 1.0928	 14.6	 0	 0	 0.0	 0.0	 0.0	 0.0	 0.0	 0.0	 0.0	 0.0	 0.0	 0.0	 0.0	 0.0; % SYNC
...
];

%% generator cost data
%	2	startup	shutdown	n	c(n-1)	...	c0
mpc.gencost = [
	2	 0.0	 0.0	 3	   0.000000	   1.015191	   0.000000; % NG
	2	 0.0	 0.0	 3	   0.000000	   1.172419	   0.000000; % NG
	2	 0.0	 0.0	 3	   0.000000	   1.228345	   0.000000; % COW
	2	 0.0	 0.0	 3	   0.000000	   1.177286	   0.000000; % NG
	2	 0.0	 0.0	 3	   0.000000	   0.981749	   0.000000; % NG
	2	 0.0	 0.0	 3	   0.000000	   1.276576	   0.000000; % NG
	2	 0.0	 0.0	 3	   0.000000	   1.252336	   0.000000; % NG
	2	 0.0	 0.0	 3	   0.000000	   0.436289	   0.000000; % COW
	2	 0.0	 0.0	 3	   0.000000	   0.191164	   0.000000; % NUC
	2	 0.0	 0.0	 3	   0.000000	   0.357516	   0.000000; % COW
	2	 0.0	 0.0	 3	   0.000000	   0.679885	   0.000000; % COW
	2	 0.0	 0.0	 3	   0.000000	   1.114653	   0.000000; % NG
	2	 0.0	 0.0	 3	   0.000000	   1.225585	   0.000000; % COW
	2	 0.0	 0.0	 3	   0.000000	   0.864669	   0.000000; % NG
	2	 0.0	 0.0	 3	   0.000000	   0.716065	   0.000000; % COW
	2	 0.0	 0.0	 3	   0.000000	   1.155647	   0.000000; % NG
	2	 0.0	 0.0	 3	   0.000000	   0.628292	   0.000000; % NG
	2	 0.0	 0.0	 3	   0.000000	   1.100741	   0.000000; % NG
	2	 0.0	 0.0	 3	   0.000000	   0.952695	   0.000000; % NG
	2	 0.0	 0.0	 3	   0.000000	   0.942059	   0.000000; % COW
	2	 0.0	 0.0	 3	   0.000000	   0.176184	   0.000000; % COW
	2	 0.0	 0.0	 3	   0.000000	   0.664446	   0.000000; % NG
	2	 0.0	 0.0	 3	   0.000000	   1.083792	   0.000000; % NG
	2	 0.0	 0.0	 3	   0.000000	   0.990217	   0.000000; % NG
	2	 0.0	 0.0	 3	   0.000000	   1.097490	   0.000000; % NG
	2	 0.0	 0.0	 3	   0.000000	   0.730947	   0.000000; % COW
	2	 0.0	 0.0	 3	   0.000000	   1.069146	   0.000000; % NG
	2	 0.0	 0.0	 3	   0.000000	   1.034401	   0.000000; % NG
	2	 0.0	 0.0	 3	   0.000000	   6.781761	   0.000000; % PEL
	2	 0.0	 0.0	 3	   0.000000	   1.353731	   0.000000; % NG
	2	 0.0	 0.0	 3	   0.000000	   0.980123	   0.000000; % NG
	2	 0.0	 0.0	 3	   0.000000	   1.245810	   0.000000; % NG
	2	 0.0	 0.0	 3	   0.000000	   0.778492	   0.000000; % NG
	2	 0.0	 0.0	 3	   0.000000	   1.318942	   0.000000; % COW
	2	 0.0	 0.0	 3	   0.000000	   0.882031	   0.000000; % NG
	2	 0.0	 0.0	 3	   0.000000	   0.617488	   0.000000; % COW
	2	 0.0	 0.0	 3	   0.000000	   0.986759	   0.000000; % NG
	2	 0.0	 0.0	 3	   0.000000	   0.964616	   0.000000; % NG
	2	 0.0	 0.0	 3	   0.000000	   0.955863	   0.000000; % NG
	2	 0.0	 0.0	 3	   0.000000	   1.133316	   0.000000; % NG
	2	 0.0	 0.0	 3	   0.000000	   0.699731	   0.000000; % COW
	2	 0.0	 0.0	 3	   0.000000	   1.251346	   0.000000; % NG
	2	 0.0	 0.0	 3	   0.000000	   1.190940	   0.000000; % NG
	2	 0.0	 0.0	 3	   0.000000	   0.896995	   0.000000; % NG
	2	 0.0	 0.0	 3	   0.000000	   0.689799	   0.000000; % NG
	2	 0.0	 0.0	 3	   0.000000	   1.157144	   0.000000; % NG
	2	 0.0	 0.0	 3	   0.000000	   0.879988	   0.000000; % COW
	2	 0.0	 0.0	 3	   0.000000	   0.504785	   0.000000; % COW
	2	 0.0	 0.0	 3	   0.000000	   0.795765	   0.000000; % NG
	2	 0.0	 0.0	 3	   0.000000	   1.121551	   0.000000; % NG
	2	 0.0	 0.0	 3	   0.000000	   0.954371	   0.000000; % COW
	2	 0.0	 0.0	 3	   0.000000	   1.019086	   0.000000; % COW
	2	 0.0	 0.0	 3	   0.000000	   1.022662	   0.000000; % NG
	2	 0.0	 0.0	 3	   0.000000	   1.086008	   0.000000; % COW
	2	 0.0	 0.0	 3	   0.000000	   1.129473	   0.000000; % NG
	2	 0.0	 0.0	 3	   0.000000	   1.324462	   0.000000; % NG
	2	 0.0	 0.0	 3	   0.000000	   0.643196	   0.000000; % COW
	2	 0.0	 0.0	 3	   0.000000	   1.117572	   0.000000; % NG
	2	 0.0	 0.0	 3	   0.000000	   0.787876	   0.000000; % NG
	2	 0.0	 0.0	 3	   0.000000	   0.496798	   0.000000; % COW
	2	 0.0	 0.0	 3	   0.000000	   0.726742	   0.000000; % NG
	2	 0.0	 0.0	 3	   0.000000	   0.789823	   0.000000; % COW
	2	 0.0	 0.0	 3	   0.000000	   0.987870	   0.000000; % NG
	2	 0.0	 0.0	 3	   0.000000	   1.100340	   0.000000; % NG
	2	 0.0	 0.0	 3	   0.000000	   1.195499	   0.000000; % NG
	2	 0.0	 0.0	 3	   0.000000	   0.715029	   0.000000; % NG
	2	 0.0	 0.0	 3	   0.000000	   1.141151	   0.000000; % NG
	2	 0.0	 0.0	 3	   0.000000	   0.305195	   0.000000; % COW
	2	 0.0	 0.0	 3	   0.000000	   0.934815	   0.000000; % NG
	2	 0.0	 0.0	 3	   0.000000	   1.022446	   0.000000; % COW
	2	 0.0	 0.0	 3	   0.000000	   1.340399	   0.000000; % NG
	2	 0.0	 0.0	 3	   0.000000	   0.781692	   0.000000; % COW
	2	 0.0	 0.0	 3	   0.000000	   1.259350	   0.000000; % NG
	2	 0.0	 0.0	 3	   0.000000	   0.932240	   0.000000; % NG
	2	 0.0	 0.0	 3	   0.000000	   1.240789	   0.000000; % NG
	2	 0.0	 0.0	 3	   0.000000	   0.626377	   0.000000; % NG
	2	 0.0	 0.0	 3	   0.000000	   1.033248	   0.000000; % NG
	2	 0.0	 0.0	 3	   0.000000	   0.907112	   0.000000; % NG
	2	 0.0	 0.0	 3	   0.000000	   0.816866	   0.000000; % NG
	2	 0.0	 0.0	 3	   0.000000	   1.387496	   0.000000; % NG
	2	 0.0	 0.0	 3	   0.000000	   1.223444	   0.000000; % NG
	2	 0.0	 0.0	 3	   0.000000	   0.993540	   0.000000; % COW
	2	 0.0	 0.0	 3	   0.000000	   1.090562	   0.000000; % COW
	2	 0.0	 0.0	 3	   0.000000	   1.127283	   0.000000; % NG
	2	 0.0	 0.0	 3	   0.000000	   1.158719	   0.000000; % NG
	2	 0.0	 0.0	 3	   0.000000	   1.063171	   0.000000; % NG
	2	 0.0	 0.0	 3	   0.000000	   0.000000	   0.000000; % SYNC
	2	 0.0	 0.0	 3	   0.000000	   0.000000	   0.000000; % SYNC
	2	 0.0	 0.0	 3	   0.000000	   1.223170	   0.000000; % NG
	2	 0.0	 0.0	 3	   0.000000	   7.481805	   0.000000; % PEL
	2	 0.0	 0.0	 3	   0.000000	   6.213999	   0.000000; % PEL
	2	 0.0	 0.0	 3	   0.000000	   1.001840	   0.000000; % NG
	2	 0.0	 0.0	 3	   0.000000	   1.207281	   0.000000; % NG
	2	 0.0	 0.0	 3	   0.000000	   0.000000	   0.000000; % SYNC
	2	 0.0	 0.0	 3	   0.000000	   0.000000	   0.000000; % SYNC
	2	 0.0	 0.0	 3	   0.000000	   7.120240	   0.000000; % PEL
	2	 0.0	 0.0	 3	   0.000000	   0.000000	   0.000000; % SYNC
	2	 0.0	 0.0	 3	   0.000000	   0.000000	   0.000000; % SYNC
	2	 0.0	 0.0	 3	   0.000000	   0.000000	   0.000000; % SYNC
	2	 0.0	 0.0	 3	   0.000000	   0.000000	   0.000000; % SYNC
	2	 0.0	 0.0	 3	   0.000000	   7.066690	   0.000000; % PEL
	2	 0.0	 0.0	 3	   0.000000	   0.000000	   0.000000; % SYNC
	2	 0.0	 0.0	 3	   0.000000	   0.547160	   0.000000; % COW
	2	 0.0	 0.0	 3	   0.000000	   0.000000	   0.000000; % SYNC
	2	 0.0	 0.0	 3	   0.000000	   1.030680	   0.000000; % NG
	2	 0.0	 0.0	 3	   0.000000	   0.000000	   0.000000; % SYNC
	2	 0.0	 0.0	 3	   0.000000	   0.000000	   0.000000; % SYNC
	2	 0.0	 0.0	 3	   0.000000	   6.805517	   0.000000; % PEL
	2	 0.0	 0.0	 3	   0.000000	   1.013741	   0.000000; % NG
	2	 0.0	 0.0	 3	   0.000000	   1.109413	   0.000000; % NG
	2	 0.0	 0.0	 3	   0.000000	   0.699521	   0.000000; % NG
	2	 0.0	 0.0	 3	   0.000000	   7.066205	   0.000000; % PEL
	2	 0.0	 0.0	 3	   0.000000	   1.070632	   0.000000; % NG
	2	 0.0	 0.0	 3	   0.000000	   6.826440	   0.000000; % PEL
	2	 0.0	 0.0	 3	   0.000000	   1.029827	   0.000000; % NG
	2	 0.0	 0.0	 3	   0.000000	   6.422428	   0.000000; % PEL
	2	 0.0	 0.0	 3	   0.000000	   0.657079	   0.000000; % COW
	2	 0.0	 0.0	 3	   0.000000	   0.000000	   0.000000; % SYNC
	2	 0.0	 0.0	 3	   0.000000	   6.557321	   0.000000; % PEL
	2	 0.0	 0.0	 3	   0.000000	   0.938471	   0.000000; % NG
	2	 0.0	 0.0	 3	   0.000000	   0.000000	   0.000000; % SYNC
	2	 0.0	 0.0	 3	   0.000000	   0.000000	   0.000000; % SYNC
	2	 0.0	 0.0	 3	   0.000000	   0.000000	   0.000000; % SYNC
	2	 0.0	 0.0	 3	   0.000000	   0.000000	   0.000000; % SYNC
	2	 0.0	 0.0	 3	   0.000000	   1.089680	   0.000000; % NG
	2	 0.0	 0.0	 3	   0.000000	   1.006411	   0.000000; % NG
	2	 0.0	 0.0	 3	   0.000000	   0.000000	   0.000000; % SYNC
	2	 0.0	 0.0	 3	   0.000000	   0.000000	   0.000000; % SYNC
	2	 0.0	 0.0	 3	   0.000000	   1.168249	   0.000000; % NG
	2	 0.0	 0.0	 3	   0.000000	   0.909868	   0.000000; % NG
	2	 0.0	 0.0	 3	   0.000000	   0.000000	   0.000000; % SYNC
	2	 0.0	 0.0	 3	   0.000000	   0.000000	   0.000000; % SYNC
	2	 0.0	 0.0	 3	   0.000000	   0.000000	   0.000000; % SYNC
	2	 0.0	 0.0	 3	   0.000000	   0.000000	   0.000000; % SYNC
	2	 0.0	 0.0	 3	   0.000000	   0.715594	   0.000000; % NG
	2	 0.0	 0.0	 3	   0.000000	   0.000000	   0.000000; % SYNC
	2	 0.0	 0.0	 3	   0.000000	   0.000000	   0.000000; % SYNC
	2	 0.0	 0.0	 3	   0.000000	   0.000000	   0.000000; % SYNC
	2	 0.0	 0.0	 3	   0.000000	   7.109386	   0.000000; % PEL
	2	 0.0	 0.0	 3	   0.000000	   7.244596	   0.000000; % PEL
	2	 0.0	 0.0	 3	   0.000000	   7.029475	   0.000000; % PEL
	2	 0.0	 0.0	 3	   0.000000	   0.921917	   0.000000; % NG
	2	 0.0	 0.0	 3	   0.000000	   1.110672	   0.000000; % NG
	2	 0.0	 0.0	 3	   0.000000	   0.850914	   0.000000; % COW
	2	 0.0	 0.0	 3	   0.000000	   0.935416	   0.000000; % NG
	2	 0.0	 0.0	 3	   0.000000	   6.978620	   0.000000; % PEL
	2	 0.0	 0.0	 3	   0.000000	   6.589376	   0.000000; % PEL
	2	 0.0	 0.0	 3	   0.000000	   1.497643	   0.000000; % NG
	2	 0.0	 0.0	 3	   0.000000	   7.018320	   0.000000; % PEL
	2	 0.0	 0.0	 3	   0.000000	   0.875344	   0.000000; % NG
	2	 0.0	 0.0	 3	   0.000000	   6.485279	   0.000000; % PEL
	2	 0.0	 0.0	 3	   0.000000	   7.057289	   0.000000; % PEL
	2	 0.0	 0.0	 3	   0.000000	   0.762205	   0.000000; % COW
	2	 0.0	 0.0	 3	   0.000000	   1.004781	   0.000000; % NG
	2	 0.0	 0.0	 3	   0.000000	   0.931021	   0.000000; % NG
	2	 0.0	 0.0	 3	   0.000000	   1.076885	   0.000000; % NG
	2	 0.0	 0.0	 3	   0.000000	   0.784887	   0.000000; % NG
	2	 0.0	 0.0	 3	   0.000000	   7.062606	   0.000000; % PEL
	2	 0.0	 0.0	 3	   0.000000	   0.000000	   0.000000; % SYNC
	2	 0.0	 0.0	 3	   0.000000	   0.000000	   0.000000; % SYNC
	2	 0.0	 0.0	 3	   0.000000	   0.710327	   0.000000; % NG
	2	 0.0	 0.0	 3	   0.000000	   0.000000	   0.000000; % SYNC
	2	 0.0	 0.0	 3	   0.000000	   1.045592	   0.000000; % NG
	2	 0.0	 0.0	 3	   0.000000	   0.000000	   0.000000; % SYNC
	2	 0.0	 0.0	 3	   0.000000	   0.000000	   0.000000; % SYNC
	2	 0.0	 0.0	 3	   0.000000	   1.035734	   0.000000; % NG
	2	 0.0	 0.0	 3	   0.000000	   0.000000	   0.000000; % SYNC
	2	 0.0	 0.0	 3	   0.000000	   1.154410	   0.000000; % NG
	2	 0.0	 0.0	 3	   0.000000	   0.999415	   0.000000; % NG
	2	 0.0	 0.0	 3	   0.000000	   7.412385	   0.000000; % PEL
	2	 0.0	 0.0	 3	   0.000000	   1.129642	   0.000000; % NG
	2	 0.0	 0.0	 3	   0.000000	   1.098063	   0.000000; % NG
	2	 0.0	 0.0	 3	   0.000000	   0.000000	   0.000000; % SYNC
	2	 0.0	 0.0	 3	   0.000000	   0.000000	   0.000000; % SYNC
	2	 0.0	 0.0	 3	   0.000000	   1.181056	   0.000000; % NG
	2	 0.0	 0.0	 3	   0.000000	   0.000000	   0.000000; % SYNC
	2	 0.0	 0.0	 3	   0.000000	   0.000000	   0.000000; % SYNC
	2	 0.0	 0.0	 3	   0.000000	   0.000000	   0.000000; % SYNC
	2	 0.0	 0.0	 3	   0.000000	   0.000000	   0.000000; % SYNC
	2	 0.0	 0.0	 3	   0.000000	   0.895096	   0.000000; % NG
	2	 0.0	 0.0	 3	   0.000000	   0.000000	   0.000000; % SYNC
	2	 0.0	 0.0	 3	   0.000000	   0.000000	   0.000000; % SYNC
	2	 0.0	 0.0	 3	   0.000000	   0.000000	   0.000000; % SYNC
	2	 0.0	 0.0	 3	   0.000000	   0.000000	   0.000000; % SYNC
	2	 0.0	 0.0	 3	   0.000000	   0.891474	   0.000000; % NG
	2	 0.0	 0.0	 3	   0.000000	   0.000000	   0.000000; % SYNC
	2	 0.0	 0.0	 3	   0.000000	   1.045137	   0.000000; % NG
	2	 0.0	 0.0	 3	   0.000000	   0.000000	   0.000000; % SYNC
	2	 0.0	 0.0	 3	   0.000000	   0.661503	   0.000000; % NG
	2	 0.0	 0.0	 3	   0.000000	   0.000000	   0.000000; % SYNC
	2	 0.0	 0.0	 3	   0.000000	   1.361145	   0.000000; % NG
	2	 0.0	 0.0	 3	   0.000000	   0.000000	   0.000000; % SYNC
	2	 0.0	 0.0	 3	   0.000000	   1.020126	   0.000000; % NG
	2	 0.0	 0.0	 3	   0.000000	   0.000000	   0.000000; % SYNC
	2	 0.0	 0.0	 3	   0.000000	   0.000000	   0.000000; % SYNC
	2	 0.0	 0.0	 3	   0.000000	   1.288439	   0.000000; % NG
	2	 0.0	 0.0	 3	   0.000000	   1.341889	   0.000000; % NG
	2	 0.0	 0.0	 3	   0.000000	   0.000000	   0.000000; % SYNC
	2	 0.0	 0.0	 3	   0.000000	   0.000000	   0.000000; % SYNC
	2	 0.0	 0.0	 3	   0.000000	   0.000000	   0.000000; % SYNC
...
];

%% branch data
%	fbus	tbus	r	x	b	rateA	rateB	rateC	ratio	angle	status	angmin	angmax
mpc.branch = [
	7	 8	 0.00064	 0.0305	 0.0	 400.0	 400.0	 400.0	 1.0435	 -0.6	 1	 -30.0	 30.0;
	26	 28	 0.00036	 0.02519	 0.0	 500.0	 500.0	 500.0	 1.067	 0.0	 1	 -30.0	 30.0;
	27	 29	 0.00036	 0.02519	 0.0	 500.0	 500.0	 500.0	 1.0671	 0.0	 1	 -30.0	 30.0;
	39	 41	 0.00034	 0.02097	 0.0	 500.0	 500.0	 500.0	 1.1102	 0.0	 1	 -30.0	 30.0;
	42	 45	 0.00034	 0.02097	 0.0	 500.0	 500.0	 500.0	 1.0917	 0.0	 1	 -30.0	 30.0;
	54	 56	 0.00081	 0.03	 0.0	 400.0	 400.0	 400.0	 1.0466	 0.0	 1	 -30.0	 30.0;
	89	 91	 0.00075	 0.02444	 -0.00832	 330.0	 330.0	 330.0	 1.0553	 0.0	 1	 -30.0	 30.0;
	90	 92	 0.00075	 0.02469	 -0.008	 330.0	 330.0	 330.0	 1.0552	 0.0	 1	 -30.0	 30.0;
	124	 127	 0.0005	 0.02875	 -0.016	 400.0	 400.0	 400.0	 1.087	 0.0	 1	 -30.0	 30.0;
	148	 149	 0.00064	 0.0305	 0.0	 400.0	 400.0	 400.0	 1.0636	 0.0	 1	 -30.0	 30.0;
	154	 156	 0.000232	 0.023	 0.0	 500.0	 500.0	 500.0	 1.0953	 0.0	 1	 -30.0	 30.0;
	155	 157	 0.000232	 0.023	 0.0	 500.0	 500.0	 500.0	 1.0953	 0.0	 1	 -30.0	 30.0;
	168	 170	 0.00035	 0.02375	 0.0	 500.0	 500.0	 500.0	 1.0767	 0.0	 1	 -30.0	 30.0;
	182	 183	 0.00059	 0.03093	 0.0	 400.0	 400.0	 400.0	 1.0504	 0.0	 1	 -30.0	 30.0;
	189	 191	 0.0004	 0.03	 0.0	 500.0	 500.0	 500.0	 1.0695	 3.6	 1	 -30.0	 30.0;
	2726	 156	 0.00031	 0.00338	 0.0992	 1386.0	 1386.0	 1386.0	 0.0	 0.0	 1	 -30.0	 30.0;
	2726	 157	 0.00031	 0.00338	 0.0992	 1386.0	 1386.0	 1386.0	 0.0	 0.0	 1	 -30.0	 30.0;
	2727	 67	 0.014341	 0.083531	 0.126034	 385.0	 385.0	 385.0	 0.0	 0.0	 1	 -30.0	 30.0;
	2725	 75	 0.01219	 0.070659	 0.117418	 412.0	 412.0	 412.0	 0.0	 0.0	 1	 -30.0	 30.0;
	2725	 104	 0.011781	 0.07087	 0.116838	 412.0	 412.0	 412.0	 0.0	 0.0	 1	 -30.0	 30.0;
	126	 2724	 0.001525	 0.016837	 0.50576	 1386.0	 1386.0	 1386.0	 0.0	 0.0	 1	 -30.0	 30.0;
	2728	 147	 0.001651	 0.015909	 0.046948	 316.0	 316.0	 316.0	 0.0	 0.0	 1	 -30.0	 30.0;
	2728	 148	 0.001651	 0.015909	 0.046948	 316.0	 316.0	 316.0	 0.0	 0.0	 1	 -30.0	 30.0;
	2729	 47	 0.00188	 0.02287	 0.6432	 831.0	 831.0	 831.0	 0.0	 0.0	 1	 -30.0	 30.0;
	2729	 48	 0.00188	 0.02287	 0.6432	 831.0	 831.0	 831.0	 0.0	 0.0	 1	 -30.0	 30.0;
	81	 2723	 0.002769	 0.031162	 0.89824	 1386.0	 1386.0	 1386.0	 0.0	 0.0	 1	 -30.0	 30.0;
	42	 23	 0.01345	 0.081141	 0.141134	 339.0	 339.0	 339.0	 0.0	 0.0	 1	 -30.0	 30.0;
	26	 89	 0.009091	 0.062401	 0.111417	 453.0	 453.0	 453.0	 0.0	 0.0	 1	 -30.0	 30.0;
	27	 90	 0.00868	 0.06405	 0.096994	 427.0	 427.0	 427.0	 0.0	 0.0	 1	 -30.0	 30.0;
	145	 30	 0.016961	 0.123659	 0.196988	 316.0	 316.0	 316.0	 0.0	 0.0	 1	 -30.0	 30.0;
	134	 33	 0.00512	 0.02618	 0.029621	 301.0	 301.0	 301.0	 0.0	 0.0	 1	 -30.0	 30.0;
	133	 20	 0.01068	 0.061961	 0.094961	 385.0	 385.0	 385.0	 0.0	 0.0	 1	 -30.0	 30.0;
	163	 21	 0.014651	 0.105891	 0.170852	 316.0	 316.0	 316.0	 0.0	 0.0	 1	 -30.0	 30.0;
	40	 108	 0.01488	 0.08161	 0.114805	 314.0	 314.0	 314.0	 0.0	 0.0	 1	 -30.0	 30.0;
	39	 90	 0.011159	 0.07231	 0.103673	 324.0	 324.0	 324.0	 0.0	 0.0	 1	 -30.0	 30.0;
	177	 82	 0.005517	 0.059484	 0.170775	 316.0	 316.0	 316.0	 0.0	 0.0	 1	 -30.0	 30.0;
	202	 164	 0.01176	 0.068289	 0.102802	 324.0	 324.0	 324.0	 0.0	 0.0	 1	 -30.0	 30.0;
	193	 164	 0.016818	 0.089091	 0.129935	 358.0	 358.0	 358.0	 0.0	 0.0	 1	 -30.0	 30.0;
	192	 163	 0.013843	 0.087025	 0.134842	 383.0	 383.0	 383.0	 0.0	 0.0	 1	 -30.0	 30.0;
	206	 166	 0.01676	 0.097169	 0.148685	 269.0	 269.0	 269.0	 0.0	 0.0	 1	 -30.0	 30.0;
	42	 10	 0.01269	 0.074979	 0.130196	 351.0	 351.0	 351.0	 0.0	 0.0	 1	 -30.0	 30.0;
	197	 18	 0.014091	 0.10413	 0.15972	 316.0	 316.0	 316.0	 0.0	 0.0	 1	 -30.0	 30.0;
	99	 54	 0.003719	 0.0438	 0.100962	 457.0	 457.0	 457.0	 0.0	 0.0	 1	 -30.0	 30.0;
	161	 81	 0.00194	 0.02056	 0.51584	 1178.0	 1178.0	 1178.0	 0.0	 0.0	 1	 -30.0	 30.0;
	44	 9	 0.0015	 0.01506	 0.4032	 1386.0	 1386.0	 1386.0	 0.0	 0.0	 1	 -30.0	 30.0;
	184	 149	 0.00294	 0.03463	 0.9216	 693.0	 693.0	 693.0	 0.0	 0.0	 1	 -30.0	 30.0;
	120	 56	 0.00169	 0.01994	 0.50624	 831.0	 831.0	 831.0	 0.0	 0.0	 1	 -30.0	 30.0;
	29	 92	 0.00137	 0.01625	 0.41184	 1386.0	 1386.0	 1386.0	 0.0	 0.0	 1	 -30.0	 30.0;
	28	 122	 0.00231	 0.02769	 0.70144	 1386.0	 1386.0	 1386.0	 0.0	 0.0	 1	 -30.0	 30.0;
	25	 191	 0.00207	 0.02474	 0.664	 1386.0	 1386.0	 1386.0	 0.0	 0.0	 1	 -30.0	 30.0;
	119	 63	 0.0015	 0.01788	 0.4512	 831.0	 831.0	 831.0	 0.0	 0.0	 1	 -30.0	 30.0;
	121	 63	 0.00469	 0.05544	 1.4048	 831.0	 831.0	 831.0	 0.0	 0.0	 1	 -30.0	 30.0;
	81	 31	 0.00331	 0.03425	 0.85888	 977.0	 977.0	 977.0	 0.0	 0.0	 1	 -30.0	 30.0;
	91	 28	 0.00219	 0.02369	 0.59584	 1178.0	 1178.0	 1178.0	 0.0	 0.0	 1	 -30.0	 30.0;
...